
---------- Begin Simulation Statistics ----------
sim_seconds                                  0.088169                       # Number of seconds simulated
sim_ticks                                 88169230000                       # Number of ticks simulated
final_tick                                88169230000                       # Number of ticks from beginning of simulation (restored from checkpoints and never reset)
sim_freq                                 1000000000000                       # Frequency of simulated ticks
host_inst_rate                                1028294                       # Simulator instruction rate (inst/s)
host_op_rate                                  1696509                       # Simulator op (including micro ops) rate (op/s)
host_tick_rate                             2025211987                       # Simulator tick rate (ticks/s)
host_mem_usage                                 672016                       # Number of bytes of host memory used
host_seconds                                    43.54                       # Real time elapsed on the host
sim_insts                                    44767606                       # Number of instructions simulated
sim_ops                                      73858880                       # Number of ops (including micro ops) simulated
system.voltage_domain.voltage                       1                       # Voltage in Volts
system.clk_domain.clock                          1000                       # Clock period in ticks
system.mem_ctrls.pwrStateResidencyTicks::UNDEFINED  88169230000                       # Cumulative time (in ticks) in various power states
system.mem_ctrls.bytes_read::cpu.inst           47104                       # Number of bytes read from this memory
system.mem_ctrls.bytes_read::cpu.data          498816                       # Number of bytes read from this memory
system.mem_ctrls.bytes_read::total             545920                       # Number of bytes read from this memory
system.mem_ctrls.bytes_inst_read::cpu.inst        47104                       # Number of instructions bytes read from this memory
system.mem_ctrls.bytes_inst_read::total         47104                       # Number of instructions bytes read from this memory
system.mem_ctrls.bytes_written::writebacks        10240                       # Number of bytes written to this memory
system.mem_ctrls.bytes_written::total           10240                       # Number of bytes written to this memory
system.mem_ctrls.num_reads::cpu.inst              736                       # Number of read requests responded to by this memory
system.mem_ctrls.num_reads::cpu.data             7794                       # Number of read requests responded to by this memory
system.mem_ctrls.num_reads::total                8530                       # Number of read requests responded to by this memory
system.mem_ctrls.num_writes::writebacks           160                       # Number of write requests responded to by this memory
system.mem_ctrls.num_writes::total                160                       # Number of write requests responded to by this memory
system.mem_ctrls.bw_read::cpu.inst             534245                       # Total read bandwidth from this memory (bytes/s)
system.mem_ctrls.bw_read::cpu.data            5657484                       # Total read bandwidth from this memory (bytes/s)
system.mem_ctrls.bw_read::total               6191729                       # Total read bandwidth from this memory (bytes/s)
system.mem_ctrls.bw_inst_read::cpu.inst        534245                       # Instruction read bandwidth from this memory (bytes/s)
system.mem_ctrls.bw_inst_read::total           534245                       # Instruction read bandwidth from this memory (bytes/s)
system.mem_ctrls.bw_write::writebacks          116140                       # Write bandwidth from this memory (bytes/s)
system.mem_ctrls.bw_write::total               116140                       # Write bandwidth from this memory (bytes/s)
system.mem_ctrls.bw_total::writebacks          116140                       # Total bandwidth to/from this memory (bytes/s)
system.mem_ctrls.bw_total::cpu.inst            534245                       # Total bandwidth to/from this memory (bytes/s)
system.mem_ctrls.bw_total::cpu.data           5657484                       # Total bandwidth to/from this memory (bytes/s)
system.mem_ctrls.bw_total::total              6307870                       # Total bandwidth to/from this memory (bytes/s)
system.pwrStateResidencyTicks::UNDEFINED  88169230000                       # Cumulative time (in ticks) in various power states
system.cpu_voltage_domain.voltage                   1                       # Voltage in Volts
system.cpu_clk_domain.clock                       500                       # Clock period in ticks
system.cpu.dtb.walker.pwrStateResidencyTicks::UNDEFINED  88169230000                       # Cumulative time (in ticks) in various power states
system.cpu.dtb.rdAccesses                    20998408                       # TLB accesses on read requests
system.cpu.dtb.wrAccesses                     5824776                       # TLB accesses on write requests
system.cpu.dtb.rdMisses                           231                       # TLB misses on read requests
system.cpu.dtb.wrMisses                           111                       # TLB misses on write requests
system.cpu.apic_clk_domain.clock                 8000                       # Clock period in ticks
system.cpu.interrupts.pwrStateResidencyTicks::UNDEFINED  88169230000                       # Cumulative time (in ticks) in various power states
system.cpu.itb.walker.pwrStateResidencyTicks::UNDEFINED  88169230000                       # Cumulative time (in ticks) in various power states
system.cpu.itb.rdAccesses                           0                       # TLB accesses on read requests
system.cpu.itb.wrAccesses                    59428528                       # TLB accesses on write requests
system.cpu.itb.rdMisses                             0                       # TLB misses on read requests
system.cpu.itb.wrMisses                            78                       # TLB misses on write requests
system.cpu.workload.numSyscalls                    25                       # Number of system calls
system.cpu.pwrStateResidencyTicks::ON     88169230000                       # Cumulative time (in ticks) in various power states
system.cpu.numCycles                        176338460                       # number of cpu cycles simulated
system.cpu.numWorkItemsStarted                      0                       # number of work items this cpu started
system.cpu.numWorkItemsCompleted                    0                       # number of work items this cpu completed
system.cpu.committedInsts                    44767606                       # Number of instructions committed
system.cpu.committedOps                      73858880                       # Number of ops (including micro ops) committed
system.cpu.num_int_alu_accesses              73334899                       # Number of integer alu accesses
system.cpu.num_fp_alu_accesses                   4324                       # Number of float alu accesses
system.cpu.num_vec_alu_accesses                     0                       # Number of vector alu accesses
system.cpu.num_func_calls                      945812                       # number of times a function call or return occured
system.cpu.num_conditional_control_insts      4246112                       # number of instructions that are conditional controls
system.cpu.num_int_insts                     73334899                       # number of integer instructions
system.cpu.num_fp_insts                          4324                       # number of float instructions
system.cpu.num_vec_insts                            0                       # number of vector instructions
system.cpu.num_int_register_reads           164564206                       # number of times the integer registers were read
system.cpu.num_int_register_writes           64004126                       # number of times the integer registers were written
system.cpu.num_fp_register_reads                 6422                       # number of times the floating registers were read
system.cpu.num_fp_register_writes                3209                       # number of times the floating registers were written
system.cpu.num_vec_register_reads                   0                       # number of times the vector registers were read
system.cpu.num_vec_register_writes                  0                       # number of times the vector registers were written
system.cpu.num_cc_register_reads             27729278                       # number of times the CC registers were read
system.cpu.num_cc_register_writes            24993564                       # number of times the CC registers were written
system.cpu.num_mem_refs                      26823176                       # number of memory refs
system.cpu.num_load_insts                    20998400                       # Number of load instructions
system.cpu.num_store_insts                    5824776                       # Number of store instructions
system.cpu.num_idle_cycles                          0                       # Number of idle cycles
system.cpu.num_busy_cycles                  176338460                       # Number of busy cycles
system.cpu.not_idle_fraction                        1                       # Percentage of non-idle cycles
system.cpu.idle_fraction                            0                       # Percentage of idle cycles
system.cpu.Branches                           5689969                       # Number of branches fetched
system.cpu.op_class::No_OpClass                177070      0.24%      0.24% # Class of executed instruction
system.cpu.op_class::IntAlu                  45851823     62.08%     62.32% # Class of executed instruction
system.cpu.op_class::IntMult                       15      0.00%     62.32% # Class of executed instruction
system.cpu.op_class::IntDiv                   1004199      1.36%     63.68% # Class of executed instruction
system.cpu.op_class::FloatAdd                     132      0.00%     63.68% # Class of executed instruction
system.cpu.op_class::FloatCmp                       0      0.00%     63.68% # Class of executed instruction
system.cpu.op_class::FloatCvt                       0      0.00%     63.68% # Class of executed instruction
system.cpu.op_class::FloatMult                      0      0.00%     63.68% # Class of executed instruction
system.cpu.op_class::FloatMultAcc                   0      0.00%     63.68% # Class of executed instruction
system.cpu.op_class::FloatDiv                       0      0.00%     63.68% # Class of executed instruction
system.cpu.op_class::FloatMisc                      0      0.00%     63.68% # Class of executed instruction
system.cpu.op_class::FloatSqrt                      0      0.00%     63.68% # Class of executed instruction
system.cpu.op_class::SimdAdd                      348      0.00%     63.68% # Class of executed instruction
system.cpu.op_class::SimdAddAcc                     0      0.00%     63.68% # Class of executed instruction
system.cpu.op_class::SimdAlu                      682      0.00%     63.68% # Class of executed instruction
system.cpu.op_class::SimdCmp                        0      0.00%     63.68% # Class of executed instruction
system.cpu.op_class::SimdCvt                      776      0.00%     63.68% # Class of executed instruction
system.cpu.op_class::SimdMisc                     530      0.00%     63.68% # Class of executed instruction
system.cpu.op_class::SimdMult                       0      0.00%     63.68% # Class of executed instruction
system.cpu.op_class::SimdMultAcc                    0      0.00%     63.68% # Class of executed instruction
system.cpu.op_class::SimdShift                    129      0.00%     63.68% # Class of executed instruction
system.cpu.op_class::SimdShiftAcc                   0      0.00%     63.68% # Class of executed instruction
system.cpu.op_class::SimdSqrt                       0      0.00%     63.68% # Class of executed instruction
system.cpu.op_class::SimdFloatAdd                   0      0.00%     63.68% # Class of executed instruction
system.cpu.op_class::SimdFloatAlu                   0      0.00%     63.68% # Class of executed instruction
system.cpu.op_class::SimdFloatCmp                   0      0.00%     63.68% # Class of executed instruction
system.cpu.op_class::SimdFloatCvt                   0      0.00%     63.68% # Class of executed instruction
system.cpu.op_class::SimdFloatDiv                   0      0.00%     63.68% # Class of executed instruction
system.cpu.op_class::SimdFloatMisc                  0      0.00%     63.68% # Class of executed instruction
system.cpu.op_class::SimdFloatMult                  0      0.00%     63.68% # Class of executed instruction
system.cpu.op_class::SimdFloatMultAcc               0      0.00%     63.68% # Class of executed instruction
system.cpu.op_class::SimdFloatSqrt                  0      0.00%     63.68% # Class of executed instruction
system.cpu.op_class::MemRead                 20997422     28.43%     92.11% # Class of executed instruction
system.cpu.op_class::MemWrite                 5824086      7.89%    100.00% # Class of executed instruction
system.cpu.op_class::FloatMemRead                 978      0.00%    100.00% # Class of executed instruction
system.cpu.op_class::FloatMemWrite                690      0.00%    100.00% # Class of executed instruction
system.cpu.op_class::IprAccess                      0      0.00%    100.00% # Class of executed instruction
system.cpu.op_class::InstPrefetch                   0      0.00%    100.00% # Class of executed instruction
system.cpu.op_class::total                   73858880                       # Class of executed instruction
system.cpu.dcache.tags.pwrStateResidencyTicks::UNDEFINED  88169230000                       # Cumulative time (in ticks) in various power states
system.cpu.dcache.tags.tagsinuse          1021.827480                       # Cycle average of tags in use
system.cpu.dcache.tags.total_refs            26823184                       # Total number of references to valid blocks.
system.cpu.dcache.tags.sampled_refs             38353                       # Sample count of references to valid blocks.
system.cpu.dcache.tags.avg_refs            699.376424                       # Average number of references to valid blocks.
system.cpu.dcache.tags.warmup_cycle            759000                       # Cycle when the warmup percentage was hit.
system.cpu.dcache.tags.occ_blocks::cpu.data  1021.827480                       # Average occupied blocks per requestor
system.cpu.dcache.tags.occ_percent::cpu.data     0.997878                       # Average percentage of cache occupancy
system.cpu.dcache.tags.occ_percent::total     0.997878                       # Average percentage of cache occupancy
system.cpu.dcache.tags.occ_task_id_blocks::1024         1024                       # Occupied blocks per task id
system.cpu.dcache.tags.age_task_id_blocks_1024::0           18                       # Occupied blocks per task id
system.cpu.dcache.tags.age_task_id_blocks_1024::1           39                       # Occupied blocks per task id
system.cpu.dcache.tags.age_task_id_blocks_1024::2           33                       # Occupied blocks per task id
system.cpu.dcache.tags.age_task_id_blocks_1024::3          465                       # Occupied blocks per task id
system.cpu.dcache.tags.age_task_id_blocks_1024::4          469                       # Occupied blocks per task id
system.cpu.dcache.tags.occ_task_id_percent::1024            1                       # Percentage of cache occupancy per task id
system.cpu.dcache.tags.tag_accesses          53684721                       # Number of tag accesses
system.cpu.dcache.tags.data_accesses         53684721                       # Number of data accesses
system.cpu.dcache.pwrStateResidencyTicks::UNDEFINED  88169230000                       # Cumulative time (in ticks) in various power states
system.cpu.dcache.ReadReq_hits::cpu.data     20967031                       # number of ReadReq hits
system.cpu.dcache.ReadReq_hits::total        20967031                       # number of ReadReq hits
system.cpu.dcache.WriteReq_hits::cpu.data      5801982                       # number of WriteReq hits
system.cpu.dcache.WriteReq_hits::total        5801982                       # number of WriteReq hits
system.cpu.dcache.demand_hits::cpu.data      26769013                       # number of demand (read+write) hits
system.cpu.dcache.demand_hits::total         26769013                       # number of demand (read+write) hits
system.cpu.dcache.overall_hits::cpu.data     26769013                       # number of overall hits
system.cpu.dcache.overall_hits::total        26769013                       # number of overall hits
system.cpu.dcache.ReadReq_misses::cpu.data        31377                       # number of ReadReq misses
system.cpu.dcache.ReadReq_misses::total         31377                       # number of ReadReq misses
system.cpu.dcache.WriteReq_misses::cpu.data        22794                       # number of WriteReq misses
system.cpu.dcache.WriteReq_misses::total        22794                       # number of WriteReq misses
system.cpu.dcache.demand_misses::cpu.data        54171                       # number of demand (read+write) misses
system.cpu.dcache.demand_misses::total          54171                       # number of demand (read+write) misses
system.cpu.dcache.overall_misses::cpu.data        54171                       # number of overall misses
system.cpu.dcache.overall_misses::total         54171                       # number of overall misses
system.cpu.dcache.ReadReq_miss_latency::cpu.data    895322000                       # number of ReadReq miss cycles
system.cpu.dcache.ReadReq_miss_latency::total    895322000                       # number of ReadReq miss cycles
system.cpu.dcache.WriteReq_miss_latency::cpu.data    952254500                       # number of WriteReq miss cycles
system.cpu.dcache.WriteReq_miss_latency::total    952254500                       # number of WriteReq miss cycles
system.cpu.dcache.demand_miss_latency::cpu.data   1847576500                       # number of demand (read+write) miss cycles
system.cpu.dcache.demand_miss_latency::total   1847576500                       # number of demand (read+write) miss cycles
system.cpu.dcache.overall_miss_latency::cpu.data   1847576500                       # number of overall miss cycles
system.cpu.dcache.overall_miss_latency::total   1847576500                       # number of overall miss cycles
system.cpu.dcache.ReadReq_accesses::cpu.data     20998408                       # number of ReadReq accesses(hits+misses)
system.cpu.dcache.ReadReq_accesses::total     20998408                       # number of ReadReq accesses(hits+misses)
system.cpu.dcache.WriteReq_accesses::cpu.data      5824776                       # number of WriteReq accesses(hits+misses)
system.cpu.dcache.WriteReq_accesses::total      5824776                       # number of WriteReq accesses(hits+misses)
system.cpu.dcache.demand_accesses::cpu.data     26823184                       # number of demand (read+write) accesses
system.cpu.dcache.demand_accesses::total     26823184                       # number of demand (read+write) accesses
system.cpu.dcache.overall_accesses::cpu.data     26823184                       # number of overall (read+write) accesses
system.cpu.dcache.overall_accesses::total     26823184                       # number of overall (read+write) accesses
system.cpu.dcache.ReadReq_miss_rate::cpu.data     0.001494                       # miss rate for ReadReq accesses
system.cpu.dcache.ReadReq_miss_rate::total     0.001494                       # miss rate for ReadReq accesses
system.cpu.dcache.WriteReq_miss_rate::cpu.data     0.003913                       # miss rate for WriteReq accesses
system.cpu.dcache.WriteReq_miss_rate::total     0.003913                       # miss rate for WriteReq accesses
system.cpu.dcache.demand_miss_rate::cpu.data     0.002020                       # miss rate for demand accesses
system.cpu.dcache.demand_miss_rate::total     0.002020                       # miss rate for demand accesses
system.cpu.dcache.overall_miss_rate::cpu.data     0.002020                       # miss rate for overall accesses
system.cpu.dcache.overall_miss_rate::total     0.002020                       # miss rate for overall accesses
system.cpu.dcache.ReadReq_avg_miss_latency::cpu.data 28534.340440                       # average ReadReq miss latency
system.cpu.dcache.ReadReq_avg_miss_latency::total 28534.340440                       # average ReadReq miss latency
system.cpu.dcache.WriteReq_avg_miss_latency::cpu.data 41776.542072                       # average WriteReq miss latency
system.cpu.dcache.WriteReq_avg_miss_latency::total 41776.542072                       # average WriteReq miss latency
system.cpu.dcache.demand_avg_miss_latency::cpu.data 34106.376105                       # average overall miss latency
system.cpu.dcache.demand_avg_miss_latency::total 34106.376105                       # average overall miss latency
system.cpu.dcache.overall_avg_miss_latency::cpu.data 34106.376105                       # average overall miss latency
system.cpu.dcache.overall_avg_miss_latency::total 34106.376105                       # average overall miss latency
system.cpu.dcache.blocked_cycles::no_mshrs            0                       # number of cycles access was blocked
system.cpu.dcache.blocked_cycles::no_targets            0                       # number of cycles access was blocked
system.cpu.dcache.blocked::no_mshrs                 0                       # number of cycles access was blocked
system.cpu.dcache.blocked::no_targets               0                       # number of cycles access was blocked
system.cpu.dcache.avg_blocked_cycles::no_mshrs          nan                       # average number of cycles each access was blocked
system.cpu.dcache.avg_blocked_cycles::no_targets          nan                       # average number of cycles each access was blocked
system.cpu.dcache.writebacks::writebacks        35100                       # number of writebacks
system.cpu.dcache.writebacks::total             35100                       # number of writebacks
system.cpu.dcache.ReadReq_mshr_misses::cpu.data        31377                       # number of ReadReq MSHR misses
system.cpu.dcache.ReadReq_mshr_misses::total        31377                       # number of ReadReq MSHR misses
system.cpu.dcache.WriteReq_mshr_misses::cpu.data        22794                       # number of WriteReq MSHR misses
system.cpu.dcache.WriteReq_mshr_misses::total        22794                       # number of WriteReq MSHR misses
system.cpu.dcache.demand_mshr_misses::cpu.data        54171                       # number of demand (read+write) MSHR misses
system.cpu.dcache.demand_mshr_misses::total        54171                       # number of demand (read+write) MSHR misses
system.cpu.dcache.overall_mshr_misses::cpu.data        54171                       # number of overall MSHR misses
system.cpu.dcache.overall_mshr_misses::total        54171                       # number of overall MSHR misses
system.cpu.dcache.ReadReq_mshr_miss_latency::cpu.data    863945000                       # number of ReadReq MSHR miss cycles
system.cpu.dcache.ReadReq_mshr_miss_latency::total    863945000                       # number of ReadReq MSHR miss cycles
system.cpu.dcache.WriteReq_mshr_miss_latency::cpu.data    929460500                       # number of WriteReq MSHR miss cycles
system.cpu.dcache.WriteReq_mshr_miss_latency::total    929460500                       # number of WriteReq MSHR miss cycles
system.cpu.dcache.demand_mshr_miss_latency::cpu.data   1793405500                       # number of demand (read+write) MSHR miss cycles
system.cpu.dcache.demand_mshr_miss_latency::total   1793405500                       # number of demand (read+write) MSHR miss cycles
system.cpu.dcache.overall_mshr_miss_latency::cpu.data   1793405500                       # number of overall MSHR miss cycles
system.cpu.dcache.overall_mshr_miss_latency::total   1793405500                       # number of overall MSHR miss cycles
system.cpu.dcache.ReadReq_mshr_miss_rate::cpu.data     0.001494                       # mshr miss rate for ReadReq accesses
system.cpu.dcache.ReadReq_mshr_miss_rate::total     0.001494                       # mshr miss rate for ReadReq accesses
system.cpu.dcache.WriteReq_mshr_miss_rate::cpu.data     0.003913                       # mshr miss rate for WriteReq accesses
system.cpu.dcache.WriteReq_mshr_miss_rate::total     0.003913                       # mshr miss rate for WriteReq accesses
system.cpu.dcache.demand_mshr_miss_rate::cpu.data     0.002020                       # mshr miss rate for demand accesses
system.cpu.dcache.demand_mshr_miss_rate::total     0.002020                       # mshr miss rate for demand accesses
system.cpu.dcache.overall_mshr_miss_rate::cpu.data     0.002020                       # mshr miss rate for overall accesses
system.cpu.dcache.overall_mshr_miss_rate::total     0.002020                       # mshr miss rate for overall accesses
system.cpu.dcache.ReadReq_avg_mshr_miss_latency::cpu.data 27534.340440                       # average ReadReq mshr miss latency
system.cpu.dcache.ReadReq_avg_mshr_miss_latency::total 27534.340440                       # average ReadReq mshr miss latency
system.cpu.dcache.WriteReq_avg_mshr_miss_latency::cpu.data 40776.542072                       # average WriteReq mshr miss latency
system.cpu.dcache.WriteReq_avg_mshr_miss_latency::total 40776.542072                       # average WriteReq mshr miss latency
system.cpu.dcache.demand_avg_mshr_miss_latency::cpu.data 33106.376105                       # average overall mshr miss latency
system.cpu.dcache.demand_avg_mshr_miss_latency::total 33106.376105                       # average overall mshr miss latency
system.cpu.dcache.overall_avg_mshr_miss_latency::cpu.data 33106.376105                       # average overall mshr miss latency
system.cpu.dcache.overall_avg_mshr_miss_latency::total 33106.376105                       # average overall mshr miss latency
system.cpu.dcache.replacements                  37329                       # number of replacements
system.cpu.dtb_walker_cache.tags.pwrStateResidencyTicks::UNDEFINED  88169230000                       # Cumulative time (in ticks) in various power states
system.cpu.dtb_walker_cache.tags.tagsinuse            0                       # Cycle average of tags in use
system.cpu.dtb_walker_cache.tags.total_refs            0                       # Total number of references to valid blocks.
system.cpu.dtb_walker_cache.tags.sampled_refs            0                       # Sample count of references to valid blocks.
system.cpu.dtb_walker_cache.tags.avg_refs          nan                       # Average number of references to valid blocks.
system.cpu.dtb_walker_cache.tags.warmup_cycle            0                       # Cycle when the warmup percentage was hit.
system.cpu.dtb_walker_cache.tags.tag_accesses            0                       # Number of tag accesses
system.cpu.dtb_walker_cache.tags.data_accesses            0                       # Number of data accesses
system.cpu.dtb_walker_cache.pwrStateResidencyTicks::UNDEFINED  88169230000                       # Cumulative time (in ticks) in various power states
system.cpu.dtb_walker_cache.blocked_cycles::no_mshrs            0                       # number of cycles access was blocked
system.cpu.dtb_walker_cache.blocked_cycles::no_targets            0                       # number of cycles access was blocked
system.cpu.dtb_walker_cache.blocked::no_mshrs            0                       # number of cycles access was blocked
system.cpu.dtb_walker_cache.blocked::no_targets            0                       # number of cycles access was blocked
system.cpu.dtb_walker_cache.avg_blocked_cycles::no_mshrs          nan                       # average number of cycles each access was blocked
system.cpu.dtb_walker_cache.avg_blocked_cycles::no_targets          nan                       # average number of cycles each access was blocked
system.cpu.dtb_walker_cache.replacements            0                       # number of replacements
system.cpu.icache.tags.pwrStateResidencyTicks::UNDEFINED  88169230000                       # Cumulative time (in ticks) in various power states
system.cpu.icache.tags.tagsinuse           439.180906                       # Cycle average of tags in use
system.cpu.icache.tags.total_refs            59428528                       # Total number of references to valid blocks.
system.cpu.icache.tags.sampled_refs               755                       # Sample count of references to valid blocks.
system.cpu.icache.tags.avg_refs          78713.282119                       # Average number of references to valid blocks.
system.cpu.icache.tags.warmup_cycle            439000                       # Cycle when the warmup percentage was hit.
system.cpu.icache.tags.occ_blocks::cpu.inst   439.180906                       # Average occupied blocks per requestor
system.cpu.icache.tags.occ_percent::cpu.inst     0.857775                       # Average percentage of cache occupancy
system.cpu.icache.tags.occ_percent::total     0.857775                       # Average percentage of cache occupancy
system.cpu.icache.tags.occ_task_id_blocks::1024          450                       # Occupied blocks per task id
system.cpu.icache.tags.age_task_id_blocks_1024::0           26                       # Occupied blocks per task id
system.cpu.icache.tags.age_task_id_blocks_1024::1           34                       # Occupied blocks per task id
system.cpu.icache.tags.age_task_id_blocks_1024::4          390                       # Occupied blocks per task id
system.cpu.icache.tags.occ_task_id_percent::1024     0.878906                       # Percentage of cache occupancy per task id
system.cpu.icache.tags.tag_accesses         118857811                       # Number of tag accesses
system.cpu.icache.tags.data_accesses        118857811                       # Number of data accesses
system.cpu.icache.pwrStateResidencyTicks::UNDEFINED  88169230000                       # Cumulative time (in ticks) in various power states
system.cpu.icache.ReadReq_hits::cpu.inst     59427773                       # number of ReadReq hits
system.cpu.icache.ReadReq_hits::total        59427773                       # number of ReadReq hits
system.cpu.icache.demand_hits::cpu.inst      59427773                       # number of demand (read+write) hits
system.cpu.icache.demand_hits::total         59427773                       # number of demand (read+write) hits
system.cpu.icache.overall_hits::cpu.inst     59427773                       # number of overall hits
system.cpu.icache.overall_hits::total        59427773                       # number of overall hits
system.cpu.icache.ReadReq_misses::cpu.inst          755                       # number of ReadReq misses
system.cpu.icache.ReadReq_misses::total           755                       # number of ReadReq misses
system.cpu.icache.demand_misses::cpu.inst          755                       # number of demand (read+write) misses
system.cpu.icache.demand_misses::total            755                       # number of demand (read+write) misses
system.cpu.icache.overall_misses::cpu.inst          755                       # number of overall misses
system.cpu.icache.overall_misses::total           755                       # number of overall misses
system.cpu.icache.ReadReq_miss_latency::cpu.inst    125186500                       # number of ReadReq miss cycles
system.cpu.icache.ReadReq_miss_latency::total    125186500                       # number of ReadReq miss cycles
system.cpu.icache.demand_miss_latency::cpu.inst    125186500                       # number of demand (read+write) miss cycles
system.cpu.icache.demand_miss_latency::total    125186500                       # number of demand (read+write) miss cycles
system.cpu.icache.overall_miss_latency::cpu.inst    125186500                       # number of overall miss cycles
system.cpu.icache.overall_miss_latency::total    125186500                       # number of overall miss cycles
system.cpu.icache.ReadReq_accesses::cpu.inst     59428528                       # number of ReadReq accesses(hits+misses)
system.cpu.icache.ReadReq_accesses::total     59428528                       # number of ReadReq accesses(hits+misses)
system.cpu.icache.demand_accesses::cpu.inst     59428528                       # number of demand (read+write) accesses
system.cpu.icache.demand_accesses::total     59428528                       # number of demand (read+write) accesses
system.cpu.icache.overall_accesses::cpu.inst     59428528                       # number of overall (read+write) accesses
system.cpu.icache.overall_accesses::total     59428528                       # number of overall (read+write) accesses
system.cpu.icache.ReadReq_miss_rate::cpu.inst     0.000013                       # miss rate for ReadReq accesses
system.cpu.icache.ReadReq_miss_rate::total     0.000013                       # miss rate for ReadReq accesses
system.cpu.icache.demand_miss_rate::cpu.inst     0.000013                       # miss rate for demand accesses
system.cpu.icache.demand_miss_rate::total     0.000013                       # miss rate for demand accesses
system.cpu.icache.overall_miss_rate::cpu.inst     0.000013                       # miss rate for overall accesses
system.cpu.icache.overall_miss_rate::total     0.000013                       # miss rate for overall accesses
system.cpu.icache.ReadReq_avg_miss_latency::cpu.inst 165809.933775                       # average ReadReq miss latency
system.cpu.icache.ReadReq_avg_miss_latency::total 165809.933775                       # average ReadReq miss latency
system.cpu.icache.demand_avg_miss_latency::cpu.inst 165809.933775                       # average overall miss latency
system.cpu.icache.demand_avg_miss_latency::total 165809.933775                       # average overall miss latency
system.cpu.icache.overall_avg_miss_latency::cpu.inst 165809.933775                       # average overall miss latency
system.cpu.icache.overall_avg_miss_latency::total 165809.933775                       # average overall miss latency
system.cpu.icache.blocked_cycles::no_mshrs            0                       # number of cycles access was blocked
system.cpu.icache.blocked_cycles::no_targets            0                       # number of cycles access was blocked
system.cpu.icache.blocked::no_mshrs                 0                       # number of cycles access was blocked
system.cpu.icache.blocked::no_targets               0                       # number of cycles access was blocked
system.cpu.icache.avg_blocked_cycles::no_mshrs          nan                       # average number of cycles each access was blocked
system.cpu.icache.avg_blocked_cycles::no_targets          nan                       # average number of cycles each access was blocked
system.cpu.icache.writebacks::writebacks          305                       # number of writebacks
system.cpu.icache.writebacks::total               305                       # number of writebacks
system.cpu.icache.ReadReq_mshr_misses::cpu.inst          755                       # number of ReadReq MSHR misses
system.cpu.icache.ReadReq_mshr_misses::total          755                       # number of ReadReq MSHR misses
system.cpu.icache.demand_mshr_misses::cpu.inst          755                       # number of demand (read+write) MSHR misses
system.cpu.icache.demand_mshr_misses::total          755                       # number of demand (read+write) MSHR misses
system.cpu.icache.overall_mshr_misses::cpu.inst          755                       # number of overall MSHR misses
system.cpu.icache.overall_mshr_misses::total          755                       # number of overall MSHR misses
system.cpu.icache.ReadReq_mshr_miss_latency::cpu.inst    124431500                       # number of ReadReq MSHR miss cycles
system.cpu.icache.ReadReq_mshr_miss_latency::total    124431500                       # number of ReadReq MSHR miss cycles
system.cpu.icache.demand_mshr_miss_latency::cpu.inst    124431500                       # number of demand (read+write) MSHR miss cycles
system.cpu.icache.demand_mshr_miss_latency::total    124431500                       # number of demand (read+write) MSHR miss cycles
system.cpu.icache.overall_mshr_miss_latency::cpu.inst    124431500                       # number of overall MSHR miss cycles
system.cpu.icache.overall_mshr_miss_latency::total    124431500                       # number of overall MSHR miss cycles
system.cpu.icache.ReadReq_mshr_miss_rate::cpu.inst     0.000013                       # mshr miss rate for ReadReq accesses
system.cpu.icache.ReadReq_mshr_miss_rate::total     0.000013                       # mshr miss rate for ReadReq accesses
system.cpu.icache.demand_mshr_miss_rate::cpu.inst     0.000013                       # mshr miss rate for demand accesses
system.cpu.icache.demand_mshr_miss_rate::total     0.000013                       # mshr miss rate for demand accesses
system.cpu.icache.overall_mshr_miss_rate::cpu.inst     0.000013                       # mshr miss rate for overall accesses
system.cpu.icache.overall_mshr_miss_rate::total     0.000013                       # mshr miss rate for overall accesses
system.cpu.icache.ReadReq_avg_mshr_miss_latency::cpu.inst 164809.933775                       # average ReadReq mshr miss latency
system.cpu.icache.ReadReq_avg_mshr_miss_latency::total 164809.933775                       # average ReadReq mshr miss latency
system.cpu.icache.demand_avg_mshr_miss_latency::cpu.inst 164809.933775                       # average overall mshr miss latency
system.cpu.icache.demand_avg_mshr_miss_latency::total 164809.933775                       # average overall mshr miss latency
system.cpu.icache.overall_avg_mshr_miss_latency::cpu.inst 164809.933775                       # average overall mshr miss latency
system.cpu.icache.overall_avg_mshr_miss_latency::total 164809.933775                       # average overall mshr miss latency
system.cpu.icache.replacements                    305                       # number of replacements
system.cpu.itb_walker_cache.tags.pwrStateResidencyTicks::UNDEFINED  88169230000                       # Cumulative time (in ticks) in various power states
system.cpu.itb_walker_cache.tags.tagsinuse            0                       # Cycle average of tags in use
system.cpu.itb_walker_cache.tags.total_refs            0                       # Total number of references to valid blocks.
system.cpu.itb_walker_cache.tags.sampled_refs            0                       # Sample count of references to valid blocks.
system.cpu.itb_walker_cache.tags.avg_refs          nan                       # Average number of references to valid blocks.
system.cpu.itb_walker_cache.tags.warmup_cycle            0                       # Cycle when the warmup percentage was hit.
system.cpu.itb_walker_cache.tags.tag_accesses            0                       # Number of tag accesses
system.cpu.itb_walker_cache.tags.data_accesses            0                       # Number of data accesses
system.cpu.itb_walker_cache.pwrStateResidencyTicks::UNDEFINED  88169230000                       # Cumulative time (in ticks) in various power states
system.cpu.itb_walker_cache.blocked_cycles::no_mshrs            0                       # number of cycles access was blocked
system.cpu.itb_walker_cache.blocked_cycles::no_targets            0                       # number of cycles access was blocked
system.cpu.itb_walker_cache.blocked::no_mshrs            0                       # number of cycles access was blocked
system.cpu.itb_walker_cache.blocked::no_targets            0                       # number of cycles access was blocked
system.cpu.itb_walker_cache.avg_blocked_cycles::no_mshrs          nan                       # average number of cycles each access was blocked
system.cpu.itb_walker_cache.avg_blocked_cycles::no_targets          nan                       # average number of cycles each access was blocked
system.cpu.itb_walker_cache.replacements            0                       # number of replacements
system.l2.tags.pwrStateResidencyTicks::UNDEFINED  88169230000                       # Cumulative time (in ticks) in various power states
system.l2.tags.tagsinuse                  2043.305768                       # Cycle average of tags in use
system.l2.tags.total_refs                       91855                       # Total number of references to valid blocks.
system.l2.tags.sampled_refs                     35648                       # Sample count of references to valid blocks.
system.l2.tags.avg_refs                      2.576722                       # Average number of references to valid blocks.
system.l2.tags.warmup_cycle                    428500                       # Cycle when the warmup percentage was hit.
system.l2.tags.occ_blocks::writebacks      470.202501                       # Average occupied blocks per requestor
system.l2.tags.occ_blocks::cpu.inst          8.739467                       # Average occupied blocks per requestor
system.l2.tags.occ_blocks::cpu.data       1564.363800                       # Average occupied blocks per requestor
system.l2.tags.occ_percent::writebacks       0.229591                       # Average percentage of cache occupancy
system.l2.tags.occ_percent::cpu.inst         0.004267                       # Average percentage of cache occupancy
system.l2.tags.occ_percent::cpu.data         0.763850                       # Average percentage of cache occupancy
system.l2.tags.occ_percent::total            0.997708                       # Average percentage of cache occupancy
system.l2.tags.occ_task_id_blocks::1024          2048                       # Occupied blocks per task id
system.l2.tags.age_task_id_blocks_1024::0           73                       # Occupied blocks per task id
system.l2.tags.age_task_id_blocks_1024::1          110                       # Occupied blocks per task id
system.l2.tags.age_task_id_blocks_1024::2           58                       # Occupied blocks per task id
system.l2.tags.age_task_id_blocks_1024::3           78                       # Occupied blocks per task id
system.l2.tags.age_task_id_blocks_1024::4         1729                       # Occupied blocks per task id
system.l2.tags.occ_task_id_percent::1024            1                       # Percentage of cache occupancy per task id
system.l2.tags.tag_accesses                    776120                       # Number of tag accesses
system.l2.tags.data_accesses                   776120                       # Number of data accesses
system.l2.pwrStateResidencyTicks::UNDEFINED  88169230000                       # Cumulative time (in ticks) in various power states
system.l2.WritebackDirty_hits::writebacks        35100                       # number of WritebackDirty hits
system.l2.WritebackDirty_hits::total            35100                       # number of WritebackDirty hits
system.l2.WritebackClean_hits::writebacks          305                       # number of WritebackClean hits
system.l2.WritebackClean_hits::total              305                       # number of WritebackClean hits
system.l2.UpgradeReq_hits::cpu.data             15805                       # number of UpgradeReq hits
system.l2.UpgradeReq_hits::total                15805                       # number of UpgradeReq hits
system.l2.ReadExReq_hits::cpu.data                162                       # number of ReadExReq hits
system.l2.ReadExReq_hits::total                   162                       # number of ReadExReq hits
system.l2.ReadCleanReq_hits::cpu.inst              17                       # number of ReadCleanReq hits
system.l2.ReadCleanReq_hits::total                 17                       # number of ReadCleanReq hits
system.l2.ReadSharedReq_hits::cpu.data          13295                       # number of ReadSharedReq hits
system.l2.ReadSharedReq_hits::total             13295                       # number of ReadSharedReq hits
system.l2.demand_hits::cpu.inst                    17                       # number of demand (read+write) hits
system.l2.demand_hits::cpu.data                 13457                       # number of demand (read+write) hits
system.l2.demand_hits::total                    13474                       # number of demand (read+write) hits
system.l2.overall_hits::cpu.inst                   17                       # number of overall hits
system.l2.overall_hits::cpu.data                13457                       # number of overall hits
system.l2.overall_hits::total                   13474                       # number of overall hits
system.l2.UpgradeReq_misses::cpu.data              13                       # number of UpgradeReq misses
system.l2.UpgradeReq_misses::total                 13                       # number of UpgradeReq misses
system.l2.ReadExReq_misses::cpu.data             6814                       # number of ReadExReq misses
system.l2.ReadExReq_misses::total                6814                       # number of ReadExReq misses
system.l2.ReadCleanReq_misses::cpu.inst           738                       # number of ReadCleanReq misses
system.l2.ReadCleanReq_misses::total              738                       # number of ReadCleanReq misses
system.l2.ReadSharedReq_misses::cpu.data        18082                       # number of ReadSharedReq misses
system.l2.ReadSharedReq_misses::total           18082                       # number of ReadSharedReq misses
system.l2.demand_misses::cpu.inst                 738                       # number of demand (read+write) misses
system.l2.demand_misses::cpu.data               24896                       # number of demand (read+write) misses
system.l2.demand_misses::total                  25634                       # number of demand (read+write) misses
system.l2.overall_misses::cpu.inst                738                       # number of overall misses
system.l2.overall_misses::cpu.data              24896                       # number of overall misses
system.l2.overall_misses::total                 25634                       # number of overall misses
system.l2.ReadExReq_miss_latency::cpu.data    727203000                       # number of ReadExReq miss cycles
system.l2.ReadExReq_miss_latency::total     727203000                       # number of ReadExReq miss cycles
system.l2.ReadCleanReq_miss_latency::cpu.inst    123116500                       # number of ReadCleanReq miss cycles
system.l2.ReadCleanReq_miss_latency::total    123116500                       # number of ReadCleanReq miss cycles
system.l2.ReadSharedReq_miss_latency::cpu.data    677274500                       # number of ReadSharedReq miss cycles
system.l2.ReadSharedReq_miss_latency::total    677274500                       # number of ReadSharedReq miss cycles
system.l2.demand_miss_latency::cpu.inst     123116500                       # number of demand (read+write) miss cycles
system.l2.demand_miss_latency::cpu.data    1404477500                       # number of demand (read+write) miss cycles
system.l2.demand_miss_latency::total       1527594000                       # number of demand (read+write) miss cycles
system.l2.overall_miss_latency::cpu.inst    123116500                       # number of overall miss cycles
system.l2.overall_miss_latency::cpu.data   1404477500                       # number of overall miss cycles
system.l2.overall_miss_latency::total      1527594000                       # number of overall miss cycles
system.l2.WritebackDirty_accesses::writebacks        35100                       # number of WritebackDirty accesses(hits+misses)
system.l2.WritebackDirty_accesses::total        35100                       # number of WritebackDirty accesses(hits+misses)
system.l2.WritebackClean_accesses::writebacks          305                       # number of WritebackClean accesses(hits+misses)
system.l2.WritebackClean_accesses::total          305                       # number of WritebackClean accesses(hits+misses)
system.l2.UpgradeReq_accesses::cpu.data         15818                       # number of UpgradeReq accesses(hits+misses)
system.l2.UpgradeReq_accesses::total            15818                       # number of UpgradeReq accesses(hits+misses)
system.l2.ReadExReq_accesses::cpu.data           6976                       # number of ReadExReq accesses(hits+misses)
system.l2.ReadExReq_accesses::total              6976                       # number of ReadExReq accesses(hits+misses)
system.l2.ReadCleanReq_accesses::cpu.inst          755                       # number of ReadCleanReq accesses(hits+misses)
system.l2.ReadCleanReq_accesses::total            755                       # number of ReadCleanReq accesses(hits+misses)
system.l2.ReadSharedReq_accesses::cpu.data        31377                       # number of ReadSharedReq accesses(hits+misses)
system.l2.ReadSharedReq_accesses::total         31377                       # number of ReadSharedReq accesses(hits+misses)
system.l2.demand_accesses::cpu.inst               755                       # number of demand (read+write) accesses
system.l2.demand_accesses::cpu.data             38353                       # number of demand (read+write) accesses
system.l2.demand_accesses::total                39108                       # number of demand (read+write) accesses
system.l2.overall_accesses::cpu.inst              755                       # number of overall (read+write) accesses
system.l2.overall_accesses::cpu.data            38353                       # number of overall (read+write) accesses
system.l2.overall_accesses::total               39108                       # number of overall (read+write) accesses
system.l2.UpgradeReq_miss_rate::cpu.data     0.000822                       # miss rate for UpgradeReq accesses
system.l2.UpgradeReq_miss_rate::total        0.000822                       # miss rate for UpgradeReq accesses
system.l2.ReadExReq_miss_rate::cpu.data      0.976778                       # miss rate for ReadExReq accesses
system.l2.ReadExReq_miss_rate::total         0.976778                       # miss rate for ReadExReq accesses
system.l2.ReadCleanReq_miss_rate::cpu.inst     0.977483                       # miss rate for ReadCleanReq accesses
system.l2.ReadCleanReq_miss_rate::total      0.977483                       # miss rate for ReadCleanReq accesses
system.l2.ReadSharedReq_miss_rate::cpu.data     0.576282                       # miss rate for ReadSharedReq accesses
system.l2.ReadSharedReq_miss_rate::total     0.576282                       # miss rate for ReadSharedReq accesses
system.l2.demand_miss_rate::cpu.inst         0.977483                       # miss rate for demand accesses
system.l2.demand_miss_rate::cpu.data         0.649128                       # miss rate for demand accesses
system.l2.demand_miss_rate::total            0.655467                       # miss rate for demand accesses
system.l2.overall_miss_rate::cpu.inst        0.977483                       # miss rate for overall accesses
system.l2.overall_miss_rate::cpu.data        0.649128                       # miss rate for overall accesses
system.l2.overall_miss_rate::total           0.655467                       # miss rate for overall accesses
system.l2.ReadExReq_avg_miss_latency::cpu.data 106721.896096                       # average ReadExReq miss latency
system.l2.ReadExReq_avg_miss_latency::total 106721.896096                       # average ReadExReq miss latency
system.l2.ReadCleanReq_avg_miss_latency::cpu.inst 166824.525745                       # average ReadCleanReq miss latency
system.l2.ReadCleanReq_avg_miss_latency::total 166824.525745                       # average ReadCleanReq miss latency
system.l2.ReadSharedReq_avg_miss_latency::cpu.data 37455.729455                       # average ReadSharedReq miss latency
system.l2.ReadSharedReq_avg_miss_latency::total 37455.729455                       # average ReadSharedReq miss latency
system.l2.demand_avg_miss_latency::cpu.inst 166824.525745                       # average overall miss latency
system.l2.demand_avg_miss_latency::cpu.data 56413.781330                       # average overall miss latency
system.l2.demand_avg_miss_latency::total 59592.494343                       # average overall miss latency
system.l2.overall_avg_miss_latency::cpu.inst 166824.525745                       # average overall miss latency
system.l2.overall_avg_miss_latency::cpu.data 56413.781330                       # average overall miss latency
system.l2.overall_avg_miss_latency::total 59592.494343                       # average overall miss latency
system.l2.blocked_cycles::no_mshrs                  0                       # number of cycles access was blocked
system.l2.blocked_cycles::no_targets                0                       # number of cycles access was blocked
system.l2.blocked::no_mshrs                         0                       # number of cycles access was blocked
system.l2.blocked::no_targets                       0                       # number of cycles access was blocked
system.l2.avg_blocked_cycles::no_mshrs            nan                       # average number of cycles each access was blocked
system.l2.avg_blocked_cycles::no_targets          nan                       # average number of cycles each access was blocked
system.l2.writebacks::writebacks                21815                       # number of writebacks
system.l2.writebacks::total                     21815                       # number of writebacks
system.l2.CleanEvict_mshr_misses::writebacks          691                       # number of CleanEvict MSHR misses
system.l2.CleanEvict_mshr_misses::total           691                       # number of CleanEvict MSHR misses
system.l2.UpgradeReq_mshr_misses::cpu.data           13                       # number of UpgradeReq MSHR misses
system.l2.UpgradeReq_mshr_misses::total            13                       # number of UpgradeReq MSHR misses
system.l2.ReadExReq_mshr_misses::cpu.data         6814                       # number of ReadExReq MSHR misses
system.l2.ReadExReq_mshr_misses::total           6814                       # number of ReadExReq MSHR misses
system.l2.ReadCleanReq_mshr_misses::cpu.inst          738                       # number of ReadCleanReq MSHR misses
system.l2.ReadCleanReq_mshr_misses::total          738                       # number of ReadCleanReq MSHR misses
system.l2.ReadSharedReq_mshr_misses::cpu.data        18082                       # number of ReadSharedReq MSHR misses
system.l2.ReadSharedReq_mshr_misses::total        18082                       # number of ReadSharedReq MSHR misses
system.l2.demand_mshr_misses::cpu.inst            738                       # number of demand (read+write) MSHR misses
system.l2.demand_mshr_misses::cpu.data          24896                       # number of demand (read+write) MSHR misses
system.l2.demand_mshr_misses::total             25634                       # number of demand (read+write) MSHR misses
system.l2.overall_mshr_misses::cpu.inst           738                       # number of overall MSHR misses
system.l2.overall_mshr_misses::cpu.data         24896                       # number of overall MSHR misses
system.l2.overall_mshr_misses::total            25634                       # number of overall MSHR misses
system.l2.UpgradeReq_mshr_miss_latency::cpu.data       279500                       # number of UpgradeReq MSHR miss cycles
system.l2.UpgradeReq_mshr_miss_latency::total       279500                       # number of UpgradeReq MSHR miss cycles
system.l2.ReadExReq_mshr_miss_latency::cpu.data    659063000                       # number of ReadExReq MSHR miss cycles
system.l2.ReadExReq_mshr_miss_latency::total    659063000                       # number of ReadExReq MSHR miss cycles
system.l2.ReadCleanReq_mshr_miss_latency::cpu.inst    115736500                       # number of ReadCleanReq MSHR miss cycles
system.l2.ReadCleanReq_mshr_miss_latency::total    115736500                       # number of ReadCleanReq MSHR miss cycles
system.l2.ReadSharedReq_mshr_miss_latency::cpu.data    496454500                       # number of ReadSharedReq MSHR miss cycles
system.l2.ReadSharedReq_mshr_miss_latency::total    496454500                       # number of ReadSharedReq MSHR miss cycles
system.l2.demand_mshr_miss_latency::cpu.inst    115736500                       # number of demand (read+write) MSHR miss cycles
system.l2.demand_mshr_miss_latency::cpu.data   1155517500                       # number of demand (read+write) MSHR miss cycles
system.l2.demand_mshr_miss_latency::total   1271254000                       # number of demand (read+write) MSHR miss cycles
system.l2.overall_mshr_miss_latency::cpu.inst    115736500                       # number of overall MSHR miss cycles
system.l2.overall_mshr_miss_latency::cpu.data   1155517500                       # number of overall MSHR miss cycles
system.l2.overall_mshr_miss_latency::total   1271254000                       # number of overall MSHR miss cycles
system.l2.CleanEvict_mshr_miss_rate::writebacks          inf                       # mshr miss rate for CleanEvict accesses
system.l2.CleanEvict_mshr_miss_rate::total          inf                       # mshr miss rate for CleanEvict accesses
system.l2.UpgradeReq_mshr_miss_rate::cpu.data     0.000822                       # mshr miss rate for UpgradeReq accesses
system.l2.UpgradeReq_mshr_miss_rate::total     0.000822                       # mshr miss rate for UpgradeReq accesses
system.l2.ReadExReq_mshr_miss_rate::cpu.data     0.976778                       # mshr miss rate for ReadExReq accesses
system.l2.ReadExReq_mshr_miss_rate::total     0.976778                       # mshr miss rate for ReadExReq accesses
system.l2.ReadCleanReq_mshr_miss_rate::cpu.inst     0.977483                       # mshr miss rate for ReadCleanReq accesses
system.l2.ReadCleanReq_mshr_miss_rate::total     0.977483                       # mshr miss rate for ReadCleanReq accesses
system.l2.ReadSharedReq_mshr_miss_rate::cpu.data     0.576282                       # mshr miss rate for ReadSharedReq accesses
system.l2.ReadSharedReq_mshr_miss_rate::total     0.576282                       # mshr miss rate for ReadSharedReq accesses
system.l2.demand_mshr_miss_rate::cpu.inst     0.977483                       # mshr miss rate for demand accesses
system.l2.demand_mshr_miss_rate::cpu.data     0.649128                       # mshr miss rate for demand accesses
system.l2.demand_mshr_miss_rate::total       0.655467                       # mshr miss rate for demand accesses
system.l2.overall_mshr_miss_rate::cpu.inst     0.977483                       # mshr miss rate for overall accesses
system.l2.overall_mshr_miss_rate::cpu.data     0.649128                       # mshr miss rate for overall accesses
system.l2.overall_mshr_miss_rate::total      0.655467                       # mshr miss rate for overall accesses
system.l2.UpgradeReq_avg_mshr_miss_latency::cpu.data        21500                       # average UpgradeReq mshr miss latency
system.l2.UpgradeReq_avg_mshr_miss_latency::total        21500                       # average UpgradeReq mshr miss latency
system.l2.ReadExReq_avg_mshr_miss_latency::cpu.data 96721.896096                       # average ReadExReq mshr miss latency
system.l2.ReadExReq_avg_mshr_miss_latency::total 96721.896096                       # average ReadExReq mshr miss latency
system.l2.ReadCleanReq_avg_mshr_miss_latency::cpu.inst 156824.525745                       # average ReadCleanReq mshr miss latency
system.l2.ReadCleanReq_avg_mshr_miss_latency::total 156824.525745                       # average ReadCleanReq mshr miss latency
system.l2.ReadSharedReq_avg_mshr_miss_latency::cpu.data 27455.729455                       # average ReadSharedReq mshr miss latency
system.l2.ReadSharedReq_avg_mshr_miss_latency::total 27455.729455                       # average ReadSharedReq mshr miss latency
system.l2.demand_avg_mshr_miss_latency::cpu.inst 156824.525745                       # average overall mshr miss latency
system.l2.demand_avg_mshr_miss_latency::cpu.data 46413.781330                       # average overall mshr miss latency
system.l2.demand_avg_mshr_miss_latency::total 49592.494343                       # average overall mshr miss latency
system.l2.overall_avg_mshr_miss_latency::cpu.inst 156824.525745                       # average overall mshr miss latency
system.l2.overall_avg_mshr_miss_latency::cpu.data 46413.781330                       # average overall mshr miss latency
system.l2.overall_avg_mshr_miss_latency::total 49592.494343                       # average overall mshr miss latency
system.l2.replacements                          33600                       # number of replacements
system.l3.tags.pwrStateResidencyTicks::UNDEFINED  88169230000                       # Cumulative time (in ticks) in various power states
system.l3.tags.tagsinuse                  6799.715099                       # Cycle average of tags in use
system.l3.tags.total_refs                       49092                       # Total number of references to valid blocks.
system.l3.tags.sampled_refs                      8549                       # Sample count of references to valid blocks.
system.l3.tags.avg_refs                      5.742426                       # Average number of references to valid blocks.
system.l3.tags.warmup_cycle                    418000                       # Cycle when the warmup percentage was hit.
system.l3.tags.occ_blocks::writebacks        7.853382                       # Average occupied blocks per requestor
system.l3.tags.occ_blocks::cpu.inst        129.366700                       # Average occupied blocks per requestor
system.l3.tags.occ_blocks::cpu.data       6662.495017                       # Average occupied blocks per requestor
system.l3.tags.occ_percent::writebacks       0.000959                       # Average percentage of cache occupancy
system.l3.tags.occ_percent::cpu.inst         0.015792                       # Average percentage of cache occupancy
system.l3.tags.occ_percent::cpu.data         0.813293                       # Average percentage of cache occupancy
system.l3.tags.occ_percent::total            0.830043                       # Average percentage of cache occupancy
system.l3.tags.occ_task_id_blocks::1024          7145                       # Occupied blocks per task id
system.l3.tags.age_task_id_blocks_1024::0           33                       # Occupied blocks per task id
system.l3.tags.age_task_id_blocks_1024::1           46                       # Occupied blocks per task id
system.l3.tags.age_task_id_blocks_1024::3            2                       # Occupied blocks per task id
system.l3.tags.age_task_id_blocks_1024::4         7064                       # Occupied blocks per task id
system.l3.tags.occ_task_id_percent::1024     0.872192                       # Percentage of cache occupancy per task id
system.l3.tags.tag_accesses                    106831                       # Number of tag accesses
system.l3.tags.data_accesses                   106831                       # Number of data accesses
system.l3.pwrStateResidencyTicks::UNDEFINED  88169230000                       # Cumulative time (in ticks) in various power states
system.l3.WritebackDirty_hits::writebacks        21815                       # number of WritebackDirty hits
system.l3.WritebackDirty_hits::total            21815                       # number of WritebackDirty hits
system.l3.UpgradeReq_hits::cpu.data                13                       # number of UpgradeReq hits
system.l3.UpgradeReq_hits::total                   13                       # number of UpgradeReq hits
system.l3.ReadExReq_hits::cpu.data                105                       # number of ReadExReq hits
system.l3.ReadExReq_hits::total                   105                       # number of ReadExReq hits
system.l3.ReadSharedReq_hits::cpu.inst              2                       # number of ReadSharedReq hits
system.l3.ReadSharedReq_hits::cpu.data          16997                       # number of ReadSharedReq hits
system.l3.ReadSharedReq_hits::total             16999                       # number of ReadSharedReq hits
system.l3.demand_hits::cpu.inst                     2                       # number of demand (read+write) hits
system.l3.demand_hits::cpu.data                 17102                       # number of demand (read+write) hits
system.l3.demand_hits::total                    17104                       # number of demand (read+write) hits
system.l3.overall_hits::cpu.inst                    2                       # number of overall hits
system.l3.overall_hits::cpu.data                17102                       # number of overall hits
system.l3.overall_hits::total                   17104                       # number of overall hits
system.l3.ReadExReq_misses::cpu.data             6709                       # number of ReadExReq misses
system.l3.ReadExReq_misses::total                6709                       # number of ReadExReq misses
system.l3.ReadSharedReq_misses::cpu.inst          736                       # number of ReadSharedReq misses
system.l3.ReadSharedReq_misses::cpu.data         1085                       # number of ReadSharedReq misses
system.l3.ReadSharedReq_misses::total            1821                       # number of ReadSharedReq misses
system.l3.demand_misses::cpu.inst                 736                       # number of demand (read+write) misses
system.l3.demand_misses::cpu.data                7794                       # number of demand (read+write) misses
system.l3.demand_misses::total                   8530                       # number of demand (read+write) misses
system.l3.overall_misses::cpu.inst                736                       # number of overall misses
system.l3.overall_misses::cpu.data               7794                       # number of overall misses
system.l3.overall_misses::total                  8530                       # number of overall misses
system.l3.ReadExReq_miss_latency::cpu.data    583006500                       # number of ReadExReq miss cycles
system.l3.ReadExReq_miss_latency::total     583006500                       # number of ReadExReq miss cycles
system.l3.ReadSharedReq_miss_latency::cpu.inst    107597500                       # number of ReadSharedReq miss cycles
system.l3.ReadSharedReq_miss_latency::cpu.data    119084000                       # number of ReadSharedReq miss cycles
system.l3.ReadSharedReq_miss_latency::total    226681500                       # number of ReadSharedReq miss cycles
system.l3.demand_miss_latency::cpu.inst     107597500                       # number of demand (read+write) miss cycles
system.l3.demand_miss_latency::cpu.data     702090500                       # number of demand (read+write) miss cycles
system.l3.demand_miss_latency::total        809688000                       # number of demand (read+write) miss cycles
system.l3.overall_miss_latency::cpu.inst    107597500                       # number of overall miss cycles
system.l3.overall_miss_latency::cpu.data    702090500                       # number of overall miss cycles
system.l3.overall_miss_latency::total       809688000                       # number of overall miss cycles
system.l3.WritebackDirty_accesses::writebacks        21815                       # number of WritebackDirty accesses(hits+misses)
system.l3.WritebackDirty_accesses::total        21815                       # number of WritebackDirty accesses(hits+misses)
system.l3.UpgradeReq_accesses::cpu.data            13                       # number of UpgradeReq accesses(hits+misses)
system.l3.UpgradeReq_accesses::total               13                       # number of UpgradeReq accesses(hits+misses)
system.l3.ReadExReq_accesses::cpu.data           6814                       # number of ReadExReq accesses(hits+misses)
system.l3.ReadExReq_accesses::total              6814                       # number of ReadExReq accesses(hits+misses)
system.l3.ReadSharedReq_accesses::cpu.inst          738                       # number of ReadSharedReq accesses(hits+misses)
system.l3.ReadSharedReq_accesses::cpu.data        18082                       # number of ReadSharedReq accesses(hits+misses)
system.l3.ReadSharedReq_accesses::total         18820                       # number of ReadSharedReq accesses(hits+misses)
system.l3.demand_accesses::cpu.inst               738                       # number of demand (read+write) accesses
system.l3.demand_accesses::cpu.data             24896                       # number of demand (read+write) accesses
system.l3.demand_accesses::total                25634                       # number of demand (read+write) accesses
system.l3.overall_accesses::cpu.inst              738                       # number of overall (read+write) accesses
system.l3.overall_accesses::cpu.data            24896                       # number of overall (read+write) accesses
system.l3.overall_accesses::total               25634                       # number of overall (read+write) accesses
system.l3.ReadExReq_miss_rate::cpu.data      0.984591                       # miss rate for ReadExReq accesses
system.l3.ReadExReq_miss_rate::total         0.984591                       # miss rate for ReadExReq accesses
system.l3.ReadSharedReq_miss_rate::cpu.inst     0.997290                       # miss rate for ReadSharedReq accesses
system.l3.ReadSharedReq_miss_rate::cpu.data     0.060004                       # miss rate for ReadSharedReq accesses
system.l3.ReadSharedReq_miss_rate::total     0.096759                       # miss rate for ReadSharedReq accesses
system.l3.demand_miss_rate::cpu.inst         0.997290                       # miss rate for demand accesses
system.l3.demand_miss_rate::cpu.data         0.313062                       # miss rate for demand accesses
system.l3.demand_miss_rate::total            0.332761                       # miss rate for demand accesses
system.l3.overall_miss_rate::cpu.inst        0.997290                       # miss rate for overall accesses
system.l3.overall_miss_rate::cpu.data        0.313062                       # miss rate for overall accesses
system.l3.overall_miss_rate::total           0.332761                       # miss rate for overall accesses
system.l3.ReadExReq_avg_miss_latency::cpu.data 86899.165300                       # average ReadExReq miss latency
system.l3.ReadExReq_avg_miss_latency::total 86899.165300                       # average ReadExReq miss latency
system.l3.ReadSharedReq_avg_miss_latency::cpu.inst 146192.255435                       # average ReadSharedReq miss latency
system.l3.ReadSharedReq_avg_miss_latency::cpu.data 109754.838710                       # average ReadSharedReq miss latency
system.l3.ReadSharedReq_avg_miss_latency::total 124481.878089                       # average ReadSharedReq miss latency
system.l3.demand_avg_miss_latency::cpu.inst 146192.255435                       # average overall miss latency
system.l3.demand_avg_miss_latency::cpu.data 90080.895561                       # average overall miss latency
system.l3.demand_avg_miss_latency::total 94922.391559                       # average overall miss latency
system.l3.overall_avg_miss_latency::cpu.inst 146192.255435                       # average overall miss latency
system.l3.overall_avg_miss_latency::cpu.data 90080.895561                       # average overall miss latency
system.l3.overall_avg_miss_latency::total 94922.391559                       # average overall miss latency
system.l3.blocked_cycles::no_mshrs                  0                       # number of cycles access was blocked
system.l3.blocked_cycles::no_targets                0                       # number of cycles access was blocked
system.l3.blocked::no_mshrs                         0                       # number of cycles access was blocked
system.l3.blocked::no_targets                       0                       # number of cycles access was blocked
system.l3.avg_blocked_cycles::no_mshrs            nan                       # average number of cycles each access was blocked
system.l3.avg_blocked_cycles::no_targets          nan                       # average number of cycles each access was blocked
system.l3.writebacks::writebacks                  160                       # number of writebacks
system.l3.writebacks::total                       160                       # number of writebacks
system.l3.CleanEvict_mshr_misses::writebacks           49                       # number of CleanEvict MSHR misses
system.l3.CleanEvict_mshr_misses::total            49                       # number of CleanEvict MSHR misses
system.l3.ReadExReq_mshr_misses::cpu.data         6709                       # number of ReadExReq MSHR misses
system.l3.ReadExReq_mshr_misses::total           6709                       # number of ReadExReq MSHR misses
system.l3.ReadSharedReq_mshr_misses::cpu.inst          736                       # number of ReadSharedReq MSHR misses
system.l3.ReadSharedReq_mshr_misses::cpu.data         1085                       # number of ReadSharedReq MSHR misses
system.l3.ReadSharedReq_mshr_misses::total         1821                       # number of ReadSharedReq MSHR misses
system.l3.demand_mshr_misses::cpu.inst            736                       # number of demand (read+write) MSHR misses
system.l3.demand_mshr_misses::cpu.data           7794                       # number of demand (read+write) MSHR misses
system.l3.demand_mshr_misses::total              8530                       # number of demand (read+write) MSHR misses
system.l3.overall_mshr_misses::cpu.inst           736                       # number of overall MSHR misses
system.l3.overall_mshr_misses::cpu.data          7794                       # number of overall MSHR misses
system.l3.overall_mshr_misses::total             8530                       # number of overall MSHR misses
system.l3.ReadExReq_mshr_miss_latency::cpu.data    515916500                       # number of ReadExReq MSHR miss cycles
system.l3.ReadExReq_mshr_miss_latency::total    515916500                       # number of ReadExReq MSHR miss cycles
system.l3.ReadSharedReq_mshr_miss_latency::cpu.inst    100237500                       # number of ReadSharedReq MSHR miss cycles
system.l3.ReadSharedReq_mshr_miss_latency::cpu.data    108234000                       # number of ReadSharedReq MSHR miss cycles
system.l3.ReadSharedReq_mshr_miss_latency::total    208471500                       # number of ReadSharedReq MSHR miss cycles
system.l3.demand_mshr_miss_latency::cpu.inst    100237500                       # number of demand (read+write) MSHR miss cycles
system.l3.demand_mshr_miss_latency::cpu.data    624150500                       # number of demand (read+write) MSHR miss cycles
system.l3.demand_mshr_miss_latency::total    724388000                       # number of demand (read+write) MSHR miss cycles
system.l3.overall_mshr_miss_latency::cpu.inst    100237500                       # number of overall MSHR miss cycles
system.l3.overall_mshr_miss_latency::cpu.data    624150500                       # number of overall MSHR miss cycles
system.l3.overall_mshr_miss_latency::total    724388000                       # number of overall MSHR miss cycles
system.l3.CleanEvict_mshr_miss_rate::writebacks          inf                       # mshr miss rate for CleanEvict accesses
system.l3.CleanEvict_mshr_miss_rate::total          inf                       # mshr miss rate for CleanEvict accesses
system.l3.ReadExReq_mshr_miss_rate::cpu.data     0.984591                       # mshr miss rate for ReadExReq accesses
system.l3.ReadExReq_mshr_miss_rate::total     0.984591                       # mshr miss rate for ReadExReq accesses
system.l3.ReadSharedReq_mshr_miss_rate::cpu.inst     0.997290                       # mshr miss rate for ReadSharedReq accesses
system.l3.ReadSharedReq_mshr_miss_rate::cpu.data     0.060004                       # mshr miss rate for ReadSharedReq accesses
system.l3.ReadSharedReq_mshr_miss_rate::total     0.096759                       # mshr miss rate for ReadSharedReq accesses
system.l3.demand_mshr_miss_rate::cpu.inst     0.997290                       # mshr miss rate for demand accesses
system.l3.demand_mshr_miss_rate::cpu.data     0.313062                       # mshr miss rate for demand accesses
system.l3.demand_mshr_miss_rate::total       0.332761                       # mshr miss rate for demand accesses
system.l3.overall_mshr_miss_rate::cpu.inst     0.997290                       # mshr miss rate for overall accesses
system.l3.overall_mshr_miss_rate::cpu.data     0.313062                       # mshr miss rate for overall accesses
system.l3.overall_mshr_miss_rate::total      0.332761                       # mshr miss rate for overall accesses
system.l3.ReadExReq_avg_mshr_miss_latency::cpu.data 76899.165300                       # average ReadExReq mshr miss latency
system.l3.ReadExReq_avg_mshr_miss_latency::total 76899.165300                       # average ReadExReq mshr miss latency
system.l3.ReadSharedReq_avg_mshr_miss_latency::cpu.inst 136192.255435                       # average ReadSharedReq mshr miss latency
system.l3.ReadSharedReq_avg_mshr_miss_latency::cpu.data 99754.838710                       # average ReadSharedReq mshr miss latency
system.l3.ReadSharedReq_avg_mshr_miss_latency::total 114481.878089                       # average ReadSharedReq mshr miss latency
system.l3.demand_avg_mshr_miss_latency::cpu.inst 136192.255435                       # average overall mshr miss latency
system.l3.demand_avg_mshr_miss_latency::cpu.data 80080.895561                       # average overall mshr miss latency
system.l3.demand_avg_mshr_miss_latency::total 84922.391559                       # average overall mshr miss latency
system.l3.overall_avg_mshr_miss_latency::cpu.inst 136192.255435                       # average overall mshr miss latency
system.l3.overall_avg_mshr_miss_latency::cpu.data 80080.895561                       # average overall mshr miss latency
system.l3.overall_avg_mshr_miss_latency::total 84922.391559                       # average overall mshr miss latency
system.l3.replacements                           1404                       # number of replacements
system.membus.snoop_filter.tot_requests          9518                       # Total number of requests made to the snoop filter.
system.membus.snoop_filter.hit_single_requests          988                       # Number of requests hitting in the snoop filter with a single holder of the requested data.
system.membus.snoop_filter.hit_multi_requests            0                       # Number of requests hitting in the snoop filter with multiple (>1) holders of the requested data.
system.membus.snoop_filter.tot_snoops               0                       # Total number of snoops made to the snoop filter.
system.membus.snoop_filter.hit_single_snoops            0                       # Number of snoops hitting in the snoop filter with a single holder of the requested data.
system.membus.snoop_filter.hit_multi_snoops            0                       # Number of snoops hitting in the snoop filter with multiple (>1) holders of the requested data.
system.membus.pwrStateResidencyTicks::UNDEFINED  88169230000                       # Cumulative time (in ticks) in various power states
system.membus.trans_dist::ReadResp               1821                       # Transaction distribution
system.membus.trans_dist::WritebackDirty          160                       # Transaction distribution
system.membus.trans_dist::CleanEvict              828                       # Transaction distribution
system.membus.trans_dist::ReadExReq              6709                       # Transaction distribution
system.membus.trans_dist::ReadExResp             6709                       # Transaction distribution
system.membus.trans_dist::ReadSharedReq          1821                       # Transaction distribution
system.membus.pkt_count_system.l3.mem_side::system.mem_ctrls.port        18048                       # Packet count per connected master and slave (bytes)
system.membus.pkt_count_system.l3.mem_side::total        18048                       # Packet count per connected master and slave (bytes)
system.membus.pkt_count::total                  18048                       # Packet count per connected master and slave (bytes)
system.membus.pkt_size_system.l3.mem_side::system.mem_ctrls.port       556160                       # Cumulative packet size per connected master and slave (bytes)
system.membus.pkt_size_system.l3.mem_side::total       556160                       # Cumulative packet size per connected master and slave (bytes)
system.membus.pkt_size::total                  556160                       # Cumulative packet size per connected master and slave (bytes)
system.membus.snoops                                0                       # Total snoops (count)
system.membus.snoopTraffic                          0                       # Total snoop traffic (bytes)
system.membus.snoop_fanout::samples              8530                       # Request fanout histogram
system.membus.snoop_fanout::mean                    0                       # Request fanout histogram
system.membus.snoop_fanout::stdev                   0                       # Request fanout histogram
system.membus.snoop_fanout::underflows              0      0.00%      0.00% # Request fanout histogram
system.membus.snoop_fanout::0                    8530    100.00%    100.00% # Request fanout histogram
system.membus.snoop_fanout::1                       0      0.00%    100.00% # Request fanout histogram
system.membus.snoop_fanout::overflows               0      0.00%    100.00% # Request fanout histogram
system.membus.snoop_fanout::min_value               0                       # Request fanout histogram
system.membus.snoop_fanout::max_value               0                       # Request fanout histogram
system.membus.snoop_fanout::total                8530                       # Request fanout histogram
system.membus.reqLayer2.occupancy            10171500                       # Layer occupancy (ticks)
system.membus.reqLayer2.utilization               0.0                       # Layer utilization (%)
system.membus.respLayer1.occupancy           42663500                       # Layer occupancy (ticks)
system.membus.respLayer1.utilization              0.0                       # Layer utilization (%)
system.tol2bus.snoop_filter.tot_requests        92560                       # Total number of requests made to the snoop filter.
system.tol2bus.snoop_filter.hit_single_requests        53452                       # Number of requests hitting in the snoop filter with a single holder of the requested data.
system.tol2bus.snoop_filter.hit_multi_requests            1                       # Number of requests hitting in the snoop filter with multiple (>1) holders of the requested data.
system.tol2bus.snoop_filter.tot_snoops          11639                       # Total number of snoops made to the snoop filter.
system.tol2bus.snoop_filter.hit_single_snoops        11639                       # Number of snoops hitting in the snoop filter with a single holder of the requested data.
system.tol2bus.snoop_filter.hit_multi_snoops            0                       # Number of snoops hitting in the snoop filter with multiple (>1) holders of the requested data.
system.tol2bus.pwrStateResidencyTicks::UNDEFINED  88169230000                       # Cumulative time (in ticks) in various power states
system.tol2bus.trans_dist::ReadResp             32132                       # Transaction distribution
system.tol2bus.trans_dist::WritebackDirty        56915                       # Transaction distribution
system.tol2bus.trans_dist::WritebackClean          305                       # Transaction distribution
system.tol2bus.trans_dist::CleanEvict           14479                       # Transaction distribution
system.tol2bus.trans_dist::UpgradeReq           15818                       # Transaction distribution
system.tol2bus.trans_dist::UpgradeResp          15818                       # Transaction distribution
system.tol2bus.trans_dist::ReadExReq             6976                       # Transaction distribution
system.tol2bus.trans_dist::ReadExResp            6976                       # Transaction distribution
system.tol2bus.trans_dist::ReadCleanReq           755                       # Transaction distribution
system.tol2bus.trans_dist::ReadSharedReq        31377                       # Transaction distribution
system.tol2bus.pkt_count_system.cpu.icache.mem_side::system.l2.cpu_side         1815                       # Packet count per connected master and slave (bytes)
system.tol2bus.pkt_count_system.cpu.dcache.mem_side::system.l2.cpu_side       145671                       # Packet count per connected master and slave (bytes)
system.tol2bus.pkt_count::total                147486                       # Packet count per connected master and slave (bytes)
system.tol2bus.pkt_size_system.cpu.icache.mem_side::system.l2.cpu_side        67840                       # Cumulative packet size per connected master and slave (bytes)
system.tol2bus.pkt_size_system.cpu.dcache.mem_side::system.l2.cpu_side      4700992                       # Cumulative packet size per connected master and slave (bytes)
system.tol2bus.pkt_size::total                4768832                       # Cumulative packet size per connected master and slave (bytes)
system.tol2bus.snoops                           34065                       # Total snoops (count)
system.tol2bus.snoopTraffic                   1396160                       # Total snoop traffic (bytes)
system.tol2bus.snoop_fanout::samples            88991                       # Request fanout histogram
system.tol2bus.snoop_fanout::mean            0.130800                       # Request fanout histogram
system.tol2bus.snoop_fanout::stdev           0.337183                       # Request fanout histogram
system.tol2bus.snoop_fanout::underflows             0      0.00%      0.00% # Request fanout histogram
system.tol2bus.snoop_fanout::0                  77351     86.92%     86.92% # Request fanout histogram
system.tol2bus.snoop_fanout::1                  11640     13.08%    100.00% # Request fanout histogram
system.tol2bus.snoop_fanout::2                      0      0.00%    100.00% # Request fanout histogram
system.tol2bus.snoop_fanout::3                      0      0.00%    100.00% # Request fanout histogram
system.tol2bus.snoop_fanout::4                      0      0.00%    100.00% # Request fanout histogram
system.tol2bus.snoop_fanout::overflows              0      0.00%    100.00% # Request fanout histogram
system.tol2bus.snoop_fanout::min_value              0                       # Request fanout histogram
system.tol2bus.snoop_fanout::max_value              1                       # Request fanout histogram
system.tol2bus.snoop_fanout::total              88991                       # Request fanout histogram
system.tol2bus.reqLayer0.occupancy           81685000                       # Layer occupancy (ticks)
system.tol2bus.reqLayer0.utilization              0.1                       # Layer utilization (%)
system.tol2bus.respLayer0.occupancy           1132500                       # Layer occupancy (ticks)
system.tol2bus.respLayer0.utilization             0.0                       # Layer utilization (%)
system.tol2bus.respLayer1.occupancy          65438500                       # Layer occupancy (ticks)
system.tol2bus.respLayer1.utilization             0.1                       # Layer utilization (%)
system.tol3bus.snoop_filter.tot_requests        49141                       # Total number of requests made to the snoop filter.
system.tol3bus.snoop_filter.hit_single_requests        23507                       # Number of requests hitting in the snoop filter with a single holder of the requested data.
system.tol3bus.snoop_filter.hit_multi_requests            0                       # Number of requests hitting in the snoop filter with multiple (>1) holders of the requested data.
system.tol3bus.snoop_filter.tot_snoops            465                       # Total number of snoops made to the snoop filter.
system.tol3bus.snoop_filter.hit_single_snoops          465                       # Number of snoops hitting in the snoop filter with a single holder of the requested data.
system.tol3bus.snoop_filter.hit_multi_snoops            0                       # Number of snoops hitting in the snoop filter with multiple (>1) holders of the requested data.
system.tol3bus.pwrStateResidencyTicks::UNDEFINED  88169230000                       # Cumulative time (in ticks) in various power states
system.tol3bus.trans_dist::ReadResp             18820                       # Transaction distribution
system.tol3bus.trans_dist::WritebackDirty        21975                       # Transaction distribution
system.tol3bus.trans_dist::CleanEvict            2923                       # Transaction distribution
system.tol3bus.trans_dist::UpgradeReq              13                       # Transaction distribution
system.tol3bus.trans_dist::UpgradeResp             13                       # Transaction distribution
system.tol3bus.trans_dist::ReadExReq             6814                       # Transaction distribution
system.tol3bus.trans_dist::ReadExResp            6814                       # Transaction distribution
system.tol3bus.trans_dist::ReadSharedReq        18820                       # Transaction distribution
system.tol3bus.pkt_count_system.l2.mem_side::system.l3.cpu_side        74788                       # Packet count per connected master and slave (bytes)
system.tol3bus.pkt_size_system.l2.mem_side::system.l3.cpu_side      3036736                       # Cumulative packet size per connected master and slave (bytes)
system.tol3bus.snoops                            1404                       # Total snoops (count)
system.tol3bus.snoopTraffic                     10240                       # Total snoop traffic (bytes)
system.tol3bus.snoop_fanout::samples            27051                       # Request fanout histogram
system.tol3bus.snoop_fanout::mean            0.017190                       # Request fanout histogram
system.tol3bus.snoop_fanout::stdev           0.129980                       # Request fanout histogram
system.tol3bus.snoop_fanout::underflows             0      0.00%      0.00% # Request fanout histogram
system.tol3bus.snoop_fanout::0                  26586     98.28%     98.28% # Request fanout histogram
system.tol3bus.snoop_fanout::1                    465      1.72%    100.00% # Request fanout histogram
system.tol3bus.snoop_fanout::overflows              0      0.00%    100.00% # Request fanout histogram
system.tol3bus.snoop_fanout::min_value              0                       # Request fanout histogram
system.tol3bus.snoop_fanout::max_value              1                       # Request fanout histogram
system.tol3bus.snoop_fanout::total              27051                       # Request fanout histogram
system.tol3bus.reqLayer0.occupancy           46385500                       # Layer occupancy (ticks)
system.tol3bus.reqLayer0.utilization              0.1                       # Layer utilization (%)
system.tol3bus.respLayer0.occupancy          38457500                       # Layer occupancy (ticks)
system.tol3bus.respLayer0.utilization             0.0                       # Layer utilization (%)

---------- End Simulation Statistics   ----------
