
---------- Begin Simulation Statistics ----------
sim_seconds                                  0.087750                       # Number of seconds simulated
sim_ticks                                 87749903000                       # Number of ticks simulated
final_tick                                87749903000                       # Number of ticks from beginning of simulation (restored from checkpoints and never reset)
sim_freq                                 1000000000000                       # Frequency of simulated ticks
host_inst_rate                                1148273                       # Simulator instruction rate (inst/s)
host_op_rate                                  1894453                       # Simulator op (including micro ops) rate (op/s)
host_tick_rate                             2250751755                       # Simulator tick rate (ticks/s)
host_mem_usage                                 672016                       # Number of bytes of host memory used
host_seconds                                    38.99                       # Real time elapsed on the host
sim_insts                                    44767606                       # Number of instructions simulated
sim_ops                                      73858880                       # Number of ops (including micro ops) simulated
system.voltage_domain.voltage                       1                       # Voltage in Volts
system.clk_domain.clock                          1000                       # Clock period in ticks
system.mem_ctrls.pwrStateResidencyTicks::UNDEFINED  87749903000                       # Cumulative time (in ticks) in various power states
system.mem_ctrls.bytes_read::cpu.inst           46976                       # Number of bytes read from this memory
system.mem_ctrls.bytes_read::cpu.data          497856                       # Number of bytes read from this memory
system.mem_ctrls.bytes_read::total             544832                       # Number of bytes read from this memory
system.mem_ctrls.bytes_inst_read::cpu.inst        46976                       # Number of instructions bytes read from this memory
system.mem_ctrls.bytes_inst_read::total         46976                       # Number of instructions bytes read from this memory
system.mem_ctrls.bytes_written::writebacks           64                       # Number of bytes written to this memory
system.mem_ctrls.bytes_written::total              64                       # Number of bytes written to this memory
system.mem_ctrls.num_reads::cpu.inst              734                       # Number of read requests responded to by this memory
system.mem_ctrls.num_reads::cpu.data             7779                       # Number of read requests responded to by this memory
system.mem_ctrls.num_reads::total                8513                       # Number of read requests responded to by this memory
system.mem_ctrls.num_writes::writebacks             1                       # Number of write requests responded to by this memory
system.mem_ctrls.num_writes::total                  1                       # Number of write requests responded to by this memory
system.mem_ctrls.bw_read::cpu.inst             535340                       # Total read bandwidth from this memory (bytes/s)
system.mem_ctrls.bw_read::cpu.data            5673579                       # Total read bandwidth from this memory (bytes/s)
system.mem_ctrls.bw_read::total               6208919                       # Total read bandwidth from this memory (bytes/s)
system.mem_ctrls.bw_inst_read::cpu.inst        535340                       # Instruction read bandwidth from this memory (bytes/s)
system.mem_ctrls.bw_inst_read::total           535340                       # Instruction read bandwidth from this memory (bytes/s)
system.mem_ctrls.bw_write::writebacks             729                       # Write bandwidth from this memory (bytes/s)
system.mem_ctrls.bw_write::total                  729                       # Write bandwidth from this memory (bytes/s)
system.mem_ctrls.bw_total::writebacks             729                       # Total bandwidth to/from this memory (bytes/s)
system.mem_ctrls.bw_total::cpu.inst            535340                       # Total bandwidth to/from this memory (bytes/s)
system.mem_ctrls.bw_total::cpu.data           5673579                       # Total bandwidth to/from this memory (bytes/s)
system.mem_ctrls.bw_total::total              6209648                       # Total bandwidth to/from this memory (bytes/s)
system.pwrStateResidencyTicks::UNDEFINED  87749903000                       # Cumulative time (in ticks) in various power states
system.cpu_voltage_domain.voltage                   1                       # Voltage in Volts
system.cpu_clk_domain.clock                       500                       # Clock period in ticks
system.cpu.dtb.walker.pwrStateResidencyTicks::UNDEFINED  87749903000                       # Cumulative time (in ticks) in various power states
system.cpu.dtb.rdAccesses                    20998408                       # TLB accesses on read requests
system.cpu.dtb.wrAccesses                     5824776                       # TLB accesses on write requests
system.cpu.dtb.rdMisses                           231                       # TLB misses on read requests
system.cpu.dtb.wrMisses                           111                       # TLB misses on write requests
system.cpu.apic_clk_domain.clock                 8000                       # Clock period in ticks
system.cpu.interrupts.pwrStateResidencyTicks::UNDEFINED  87749903000                       # Cumulative time (in ticks) in various power states
system.cpu.itb.walker.pwrStateResidencyTicks::UNDEFINED  87749903000                       # Cumulative time (in ticks) in various power states
system.cpu.itb.rdAccesses                           0                       # TLB accesses on read requests
system.cpu.itb.wrAccesses                    59428528                       # TLB accesses on write requests
system.cpu.itb.rdMisses                             0                       # TLB misses on read requests
system.cpu.itb.wrMisses                            78                       # TLB misses on write requests
system.cpu.workload.numSyscalls                    25                       # Number of system calls
system.cpu.pwrStateResidencyTicks::ON     87749903000                       # Cumulative time (in ticks) in various power states
system.cpu.numCycles                        175499806                       # number of cpu cycles simulated
system.cpu.numWorkItemsStarted                      0                       # number of work items this cpu started
system.cpu.numWorkItemsCompleted                    0                       # number of work items this cpu completed
system.cpu.committedInsts                    44767606                       # Number of instructions committed
system.cpu.committedOps                      73858880                       # Number of ops (including micro ops) committed
system.cpu.num_int_alu_accesses              73334899                       # Number of integer alu accesses
system.cpu.num_fp_alu_accesses                   4324                       # Number of float alu accesses
system.cpu.num_vec_alu_accesses                     0                       # Number of vector alu accesses
system.cpu.num_func_calls                      945812                       # number of times a function call or return occured
system.cpu.num_conditional_control_insts      4246112                       # number of instructions that are conditional controls
system.cpu.num_int_insts                     73334899                       # number of integer instructions
system.cpu.num_fp_insts                          4324                       # number of float instructions
system.cpu.num_vec_insts                            0                       # number of vector instructions
system.cpu.num_int_register_reads           164564206                       # number of times the integer registers were read
system.cpu.num_int_register_writes           64004126                       # number of times the integer registers were written
system.cpu.num_fp_register_reads                 6422                       # number of times the floating registers were read
system.cpu.num_fp_register_writes                3209                       # number of times the floating registers were written
system.cpu.num_vec_register_reads                   0                       # number of times the vector registers were read
system.cpu.num_vec_register_writes                  0                       # number of times the vector registers were written
system.cpu.num_cc_register_reads             27729278                       # number of times the CC registers were read
system.cpu.num_cc_register_writes            24993564                       # number of times the CC registers were written
system.cpu.num_mem_refs                      26823176                       # number of memory refs
system.cpu.num_load_insts                    20998400                       # Number of load instructions
system.cpu.num_store_insts                    5824776                       # Number of store instructions
system.cpu.num_idle_cycles                          0                       # Number of idle cycles
system.cpu.num_busy_cycles                  175499806                       # Number of busy cycles
system.cpu.not_idle_fraction                        1                       # Percentage of non-idle cycles
system.cpu.idle_fraction                            0                       # Percentage of idle cycles
system.cpu.Branches                           5689969                       # Number of branches fetched
system.cpu.op_class::No_OpClass                177070      0.24%      0.24% # Class of executed instruction
system.cpu.op_class::IntAlu                  45851823     62.08%     62.32% # Class of executed instruction
system.cpu.op_class::IntMult                       15      0.00%     62.32% # Class of executed instruction
system.cpu.op_class::IntDiv                   1004199      1.36%     63.68% # Class of executed instruction
system.cpu.op_class::FloatAdd                     132      0.00%     63.68% # Class of executed instruction
system.cpu.op_class::FloatCmp                       0      0.00%     63.68% # Class of executed instruction
system.cpu.op_class::FloatCvt                       0      0.00%     63.68% # Class of executed instruction
system.cpu.op_class::FloatMult                      0      0.00%     63.68% # Class of executed instruction
system.cpu.op_class::FloatMultAcc                   0      0.00%     63.68% # Class of executed instruction
system.cpu.op_class::FloatDiv                       0      0.00%     63.68% # Class of executed instruction
system.cpu.op_class::FloatMisc                      0      0.00%     63.68% # Class of executed instruction
system.cpu.op_class::FloatSqrt                      0      0.00%     63.68% # Class of executed instruction
system.cpu.op_class::SimdAdd                      348      0.00%     63.68% # Class of executed instruction
system.cpu.op_class::SimdAddAcc                     0      0.00%     63.68% # Class of executed instruction
system.cpu.op_class::SimdAlu                      682      0.00%     63.68% # Class of executed instruction
system.cpu.op_class::SimdCmp                        0      0.00%     63.68% # Class of executed instruction
system.cpu.op_class::SimdCvt                      776      0.00%     63.68% # Class of executed instruction
system.cpu.op_class::SimdMisc                     530      0.00%     63.68% # Class of executed instruction
system.cpu.op_class::SimdMult                       0      0.00%     63.68% # Class of executed instruction
system.cpu.op_class::SimdMultAcc                    0      0.00%     63.68% # Class of executed instruction
system.cpu.op_class::SimdShift                    129      0.00%     63.68% # Class of executed instruction
system.cpu.op_class::SimdShiftAcc                   0      0.00%     63.68% # Class of executed instruction
system.cpu.op_class::SimdSqrt                       0      0.00%     63.68% # Class of executed instruction
system.cpu.op_class::SimdFloatAdd                   0      0.00%     63.68% # Class of executed instruction
system.cpu.op_class::SimdFloatAlu                   0      0.00%     63.68% # Class of executed instruction
system.cpu.op_class::SimdFloatCmp                   0      0.00%     63.68% # Class of executed instruction
system.cpu.op_class::SimdFloatCvt                   0      0.00%     63.68% # Class of executed instruction
system.cpu.op_class::SimdFloatDiv                   0      0.00%     63.68% # Class of executed instruction
system.cpu.op_class::SimdFloatMisc                  0      0.00%     63.68% # Class of executed instruction
system.cpu.op_class::SimdFloatMult                  0      0.00%     63.68% # Class of executed instruction
system.cpu.op_class::SimdFloatMultAcc               0      0.00%     63.68% # Class of executed instruction
system.cpu.op_class::SimdFloatSqrt                  0      0.00%     63.68% # Class of executed instruction
system.cpu.op_class::MemRead                 20997422     28.43%     92.11% # Class of executed instruction
system.cpu.op_class::MemWrite                 5824086      7.89%    100.00% # Class of executed instruction
system.cpu.op_class::FloatMemRead                 978      0.00%    100.00% # Class of executed instruction
system.cpu.op_class::FloatMemWrite                690      0.00%    100.00% # Class of executed instruction
system.cpu.op_class::IprAccess                      0      0.00%    100.00% # Class of executed instruction
system.cpu.op_class::InstPrefetch                   0      0.00%    100.00% # Class of executed instruction
system.cpu.op_class::total                   73858880                       # Class of executed instruction
system.cpu.dcache.tags.pwrStateResidencyTicks::UNDEFINED  87749903000                       # Cumulative time (in ticks) in various power states
system.cpu.dcache.tags.tagsinuse          1021.817099                       # Cycle average of tags in use
system.cpu.dcache.tags.total_refs            26823184                       # Total number of references to valid blocks.
system.cpu.dcache.tags.sampled_refs             38353                       # Sample count of references to valid blocks.
system.cpu.dcache.tags.avg_refs            699.376424                       # Average number of references to valid blocks.
system.cpu.dcache.tags.warmup_cycle            759000                       # Cycle when the warmup percentage was hit.
system.cpu.dcache.tags.occ_blocks::cpu.data  1021.817099                       # Average occupied blocks per requestor
system.cpu.dcache.tags.occ_percent::cpu.data     0.997868                       # Average percentage of cache occupancy
system.cpu.dcache.tags.occ_percent::total     0.997868                       # Average percentage of cache occupancy
system.cpu.dcache.tags.occ_task_id_blocks::1024         1024                       # Occupied blocks per task id
system.cpu.dcache.tags.age_task_id_blocks_1024::0           48                       # Occupied blocks per task id
system.cpu.dcache.tags.age_task_id_blocks_1024::1            9                       # Occupied blocks per task id
system.cpu.dcache.tags.age_task_id_blocks_1024::2           33                       # Occupied blocks per task id
system.cpu.dcache.tags.age_task_id_blocks_1024::3          465                       # Occupied blocks per task id
system.cpu.dcache.tags.age_task_id_blocks_1024::4          469                       # Occupied blocks per task id
system.cpu.dcache.tags.occ_task_id_percent::1024            1                       # Percentage of cache occupancy per task id
system.cpu.dcache.tags.tag_accesses          53684721                       # Number of tag accesses
system.cpu.dcache.tags.data_accesses         53684721                       # Number of data accesses
system.cpu.dcache.pwrStateResidencyTicks::UNDEFINED  87749903000                       # Cumulative time (in ticks) in various power states
system.cpu.dcache.ReadReq_hits::cpu.data     20967031                       # number of ReadReq hits
system.cpu.dcache.ReadReq_hits::total        20967031                       # number of ReadReq hits
system.cpu.dcache.WriteReq_hits::cpu.data      5801977                       # number of WriteReq hits
system.cpu.dcache.WriteReq_hits::total        5801977                       # number of WriteReq hits
system.cpu.dcache.demand_hits::cpu.data      26769008                       # number of demand (read+write) hits
system.cpu.dcache.demand_hits::total         26769008                       # number of demand (read+write) hits
system.cpu.dcache.overall_hits::cpu.data     26769008                       # number of overall hits
system.cpu.dcache.overall_hits::total        26769008                       # number of overall hits
system.cpu.dcache.ReadReq_misses::cpu.data        31377                       # number of ReadReq misses
system.cpu.dcache.ReadReq_misses::total         31377                       # number of ReadReq misses
system.cpu.dcache.WriteReq_misses::cpu.data        22799                       # number of WriteReq misses
system.cpu.dcache.WriteReq_misses::total        22799                       # number of WriteReq misses
system.cpu.dcache.demand_misses::cpu.data        54176                       # number of demand (read+write) misses
system.cpu.dcache.demand_misses::total          54176                       # number of demand (read+write) misses
system.cpu.dcache.overall_misses::cpu.data        54176                       # number of overall misses
system.cpu.dcache.overall_misses::total         54176                       # number of overall misses
system.cpu.dcache.ReadReq_miss_latency::cpu.data    887699000                       # number of ReadReq miss cycles
system.cpu.dcache.ReadReq_miss_latency::total    887699000                       # number of ReadReq miss cycles
system.cpu.dcache.WriteReq_miss_latency::cpu.data    559327000                       # number of WriteReq miss cycles
system.cpu.dcache.WriteReq_miss_latency::total    559327000                       # number of WriteReq miss cycles
system.cpu.dcache.demand_miss_latency::cpu.data   1447026000                       # number of demand (read+write) miss cycles
system.cpu.dcache.demand_miss_latency::total   1447026000                       # number of demand (read+write) miss cycles
system.cpu.dcache.overall_miss_latency::cpu.data   1447026000                       # number of overall miss cycles
system.cpu.dcache.overall_miss_latency::total   1447026000                       # number of overall miss cycles
system.cpu.dcache.ReadReq_accesses::cpu.data     20998408                       # number of ReadReq accesses(hits+misses)
system.cpu.dcache.ReadReq_accesses::total     20998408                       # number of ReadReq accesses(hits+misses)
system.cpu.dcache.WriteReq_accesses::cpu.data      5824776                       # number of WriteReq accesses(hits+misses)
system.cpu.dcache.WriteReq_accesses::total      5824776                       # number of WriteReq accesses(hits+misses)
system.cpu.dcache.demand_accesses::cpu.data     26823184                       # number of demand (read+write) accesses
system.cpu.dcache.demand_accesses::total     26823184                       # number of demand (read+write) accesses
system.cpu.dcache.overall_accesses::cpu.data     26823184                       # number of overall (read+write) accesses
system.cpu.dcache.overall_accesses::total     26823184                       # number of overall (read+write) accesses
system.cpu.dcache.ReadReq_miss_rate::cpu.data     0.001494                       # miss rate for ReadReq accesses
system.cpu.dcache.ReadReq_miss_rate::total     0.001494                       # miss rate for ReadReq accesses
system.cpu.dcache.WriteReq_miss_rate::cpu.data     0.003914                       # miss rate for WriteReq accesses
system.cpu.dcache.WriteReq_miss_rate::total     0.003914                       # miss rate for WriteReq accesses
system.cpu.dcache.demand_miss_rate::cpu.data     0.002020                       # miss rate for demand accesses
system.cpu.dcache.demand_miss_rate::total     0.002020                       # miss rate for demand accesses
system.cpu.dcache.overall_miss_rate::cpu.data     0.002020                       # miss rate for overall accesses
system.cpu.dcache.overall_miss_rate::total     0.002020                       # miss rate for overall accesses
system.cpu.dcache.ReadReq_avg_miss_latency::cpu.data 28291.391784                       # average ReadReq miss latency
system.cpu.dcache.ReadReq_avg_miss_latency::total 28291.391784                       # average ReadReq miss latency
system.cpu.dcache.WriteReq_avg_miss_latency::cpu.data 24532.961972                       # average WriteReq miss latency
system.cpu.dcache.WriteReq_avg_miss_latency::total 24532.961972                       # average WriteReq miss latency
system.cpu.dcache.demand_avg_miss_latency::cpu.data 26709.723863                       # average overall miss latency
system.cpu.dcache.demand_avg_miss_latency::total 26709.723863                       # average overall miss latency
system.cpu.dcache.overall_avg_miss_latency::cpu.data 26709.723863                       # average overall miss latency
system.cpu.dcache.overall_avg_miss_latency::total 26709.723863                       # average overall miss latency
system.cpu.dcache.blocked_cycles::no_mshrs            0                       # number of cycles access was blocked
system.cpu.dcache.blocked_cycles::no_targets            0                       # number of cycles access was blocked
system.cpu.dcache.blocked::no_mshrs                 0                       # number of cycles access was blocked
system.cpu.dcache.blocked::no_targets               0                       # number of cycles access was blocked
system.cpu.dcache.avg_blocked_cycles::no_mshrs          nan                       # average number of cycles each access was blocked
system.cpu.dcache.avg_blocked_cycles::no_targets          nan                       # average number of cycles each access was blocked
system.cpu.dcache.writebacks::writebacks        35100                       # number of writebacks
system.cpu.dcache.writebacks::total             35100                       # number of writebacks
system.cpu.dcache.ReadReq_mshr_misses::cpu.data        31377                       # number of ReadReq MSHR misses
system.cpu.dcache.ReadReq_mshr_misses::total        31377                       # number of ReadReq MSHR misses
system.cpu.dcache.WriteReq_mshr_misses::cpu.data        22799                       # number of WriteReq MSHR misses
system.cpu.dcache.WriteReq_mshr_misses::total        22799                       # number of WriteReq MSHR misses
system.cpu.dcache.demand_mshr_misses::cpu.data        54176                       # number of demand (read+write) MSHR misses
system.cpu.dcache.demand_mshr_misses::total        54176                       # number of demand (read+write) MSHR misses
system.cpu.dcache.overall_mshr_misses::cpu.data        54176                       # number of overall MSHR misses
system.cpu.dcache.overall_mshr_misses::total        54176                       # number of overall MSHR misses
system.cpu.dcache.ReadReq_mshr_miss_latency::cpu.data    856322000                       # number of ReadReq MSHR miss cycles
system.cpu.dcache.ReadReq_mshr_miss_latency::total    856322000                       # number of ReadReq MSHR miss cycles
system.cpu.dcache.WriteReq_mshr_miss_latency::cpu.data    536528000                       # number of WriteReq MSHR miss cycles
system.cpu.dcache.WriteReq_mshr_miss_latency::total    536528000                       # number of WriteReq MSHR miss cycles
system.cpu.dcache.demand_mshr_miss_latency::cpu.data   1392850000                       # number of demand (read+write) MSHR miss cycles
system.cpu.dcache.demand_mshr_miss_latency::total   1392850000                       # number of demand (read+write) MSHR miss cycles
system.cpu.dcache.overall_mshr_miss_latency::cpu.data   1392850000                       # number of overall MSHR miss cycles
system.cpu.dcache.overall_mshr_miss_latency::total   1392850000                       # number of overall MSHR miss cycles
system.cpu.dcache.ReadReq_mshr_miss_rate::cpu.data     0.001494                       # mshr miss rate for ReadReq accesses
system.cpu.dcache.ReadReq_mshr_miss_rate::total     0.001494                       # mshr miss rate for ReadReq accesses
system.cpu.dcache.WriteReq_mshr_miss_rate::cpu.data     0.003914                       # mshr miss rate for WriteReq accesses
system.cpu.dcache.WriteReq_mshr_miss_rate::total     0.003914                       # mshr miss rate for WriteReq accesses
system.cpu.dcache.demand_mshr_miss_rate::cpu.data     0.002020                       # mshr miss rate for demand accesses
system.cpu.dcache.demand_mshr_miss_rate::total     0.002020                       # mshr miss rate for demand accesses
system.cpu.dcache.overall_mshr_miss_rate::cpu.data     0.002020                       # mshr miss rate for overall accesses
system.cpu.dcache.overall_mshr_miss_rate::total     0.002020                       # mshr miss rate for overall accesses
system.cpu.dcache.ReadReq_avg_mshr_miss_latency::cpu.data 27291.391784                       # average ReadReq mshr miss latency
system.cpu.dcache.ReadReq_avg_mshr_miss_latency::total 27291.391784                       # average ReadReq mshr miss latency
system.cpu.dcache.WriteReq_avg_mshr_miss_latency::cpu.data 23532.961972                       # average WriteReq mshr miss latency
system.cpu.dcache.WriteReq_avg_mshr_miss_latency::total 23532.961972                       # average WriteReq mshr miss latency
system.cpu.dcache.demand_avg_mshr_miss_latency::cpu.data 25709.723863                       # average overall mshr miss latency
system.cpu.dcache.demand_avg_mshr_miss_latency::total 25709.723863                       # average overall mshr miss latency
system.cpu.dcache.overall_avg_mshr_miss_latency::cpu.data 25709.723863                       # average overall mshr miss latency
system.cpu.dcache.overall_avg_mshr_miss_latency::total 25709.723863                       # average overall mshr miss latency
system.cpu.dcache.replacements                  37329                       # number of replacements
system.cpu.dtb_walker_cache.tags.pwrStateResidencyTicks::UNDEFINED  87749903000                       # Cumulative time (in ticks) in various power states
system.cpu.dtb_walker_cache.tags.tagsinuse            0                       # Cycle average of tags in use
system.cpu.dtb_walker_cache.tags.total_refs            0                       # Total number of references to valid blocks.
system.cpu.dtb_walker_cache.tags.sampled_refs            0                       # Sample count of references to valid blocks.
system.cpu.dtb_walker_cache.tags.avg_refs          nan                       # Average number of references to valid blocks.
system.cpu.dtb_walker_cache.tags.warmup_cycle            0                       # Cycle when the warmup percentage was hit.
system.cpu.dtb_walker_cache.tags.tag_accesses            0                       # Number of tag accesses
system.cpu.dtb_walker_cache.tags.data_accesses            0                       # Number of data accesses
system.cpu.dtb_walker_cache.pwrStateResidencyTicks::UNDEFINED  87749903000                       # Cumulative time (in ticks) in various power states
system.cpu.dtb_walker_cache.blocked_cycles::no_mshrs            0                       # number of cycles access was blocked
system.cpu.dtb_walker_cache.blocked_cycles::no_targets            0                       # number of cycles access was blocked
system.cpu.dtb_walker_cache.blocked::no_mshrs            0                       # number of cycles access was blocked
system.cpu.dtb_walker_cache.blocked::no_targets            0                       # number of cycles access was blocked
system.cpu.dtb_walker_cache.avg_blocked_cycles::no_mshrs          nan                       # average number of cycles each access was blocked
system.cpu.dtb_walker_cache.avg_blocked_cycles::no_targets          nan                       # average number of cycles each access was blocked
system.cpu.dtb_walker_cache.replacements            0                       # number of replacements
system.cpu.icache.tags.pwrStateResidencyTicks::UNDEFINED  87749903000                       # Cumulative time (in ticks) in various power states
system.cpu.icache.tags.tagsinuse           439.184662                       # Cycle average of tags in use
system.cpu.icache.tags.total_refs            59428528                       # Total number of references to valid blocks.
system.cpu.icache.tags.sampled_refs               755                       # Sample count of references to valid blocks.
system.cpu.icache.tags.avg_refs          78713.282119                       # Average number of references to valid blocks.
system.cpu.icache.tags.warmup_cycle            439000                       # Cycle when the warmup percentage was hit.
system.cpu.icache.tags.occ_blocks::cpu.inst   439.184662                       # Average occupied blocks per requestor
system.cpu.icache.tags.occ_percent::cpu.inst     0.857783                       # Average percentage of cache occupancy
system.cpu.icache.tags.occ_percent::total     0.857783                       # Average percentage of cache occupancy
system.cpu.icache.tags.occ_task_id_blocks::1024          450                       # Occupied blocks per task id
system.cpu.icache.tags.age_task_id_blocks_1024::0           54                       # Occupied blocks per task id
system.cpu.icache.tags.age_task_id_blocks_1024::1            6                       # Occupied blocks per task id
system.cpu.icache.tags.age_task_id_blocks_1024::4          390                       # Occupied blocks per task id
system.cpu.icache.tags.occ_task_id_percent::1024     0.878906                       # Percentage of cache occupancy per task id
system.cpu.icache.tags.tag_accesses         118857811                       # Number of tag accesses
system.cpu.icache.tags.data_accesses        118857811                       # Number of data accesses
system.cpu.icache.pwrStateResidencyTicks::UNDEFINED  87749903000                       # Cumulative time (in ticks) in various power states
system.cpu.icache.ReadReq_hits::cpu.inst     59427773                       # number of ReadReq hits
system.cpu.icache.ReadReq_hits::total        59427773                       # number of ReadReq hits
system.cpu.icache.demand_hits::cpu.inst      59427773                       # number of demand (read+write) hits
system.cpu.icache.demand_hits::total         59427773                       # number of demand (read+write) hits
system.cpu.icache.overall_hits::cpu.inst     59427773                       # number of overall hits
system.cpu.icache.overall_hits::total        59427773                       # number of overall hits
system.cpu.icache.ReadReq_misses::cpu.inst          755                       # number of ReadReq misses
system.cpu.icache.ReadReq_misses::total           755                       # number of ReadReq misses
system.cpu.icache.demand_misses::cpu.inst          755                       # number of demand (read+write) misses
system.cpu.icache.demand_misses::total            755                       # number of demand (read+write) misses
system.cpu.icache.overall_misses::cpu.inst          755                       # number of overall misses
system.cpu.icache.overall_misses::total           755                       # number of overall misses
system.cpu.icache.ReadReq_miss_latency::cpu.inst    106415000                       # number of ReadReq miss cycles
system.cpu.icache.ReadReq_miss_latency::total    106415000                       # number of ReadReq miss cycles
system.cpu.icache.demand_miss_latency::cpu.inst    106415000                       # number of demand (read+write) miss cycles
system.cpu.icache.demand_miss_latency::total    106415000                       # number of demand (read+write) miss cycles
system.cpu.icache.overall_miss_latency::cpu.inst    106415000                       # number of overall miss cycles
system.cpu.icache.overall_miss_latency::total    106415000                       # number of overall miss cycles
system.cpu.icache.ReadReq_accesses::cpu.inst     59428528                       # number of ReadReq accesses(hits+misses)
system.cpu.icache.ReadReq_accesses::total     59428528                       # number of ReadReq accesses(hits+misses)
system.cpu.icache.demand_accesses::cpu.inst     59428528                       # number of demand (read+write) accesses
system.cpu.icache.demand_accesses::total     59428528                       # number of demand (read+write) accesses
system.cpu.icache.overall_accesses::cpu.inst     59428528                       # number of overall (read+write) accesses
system.cpu.icache.overall_accesses::total     59428528                       # number of overall (read+write) accesses
system.cpu.icache.ReadReq_miss_rate::cpu.inst     0.000013                       # miss rate for ReadReq accesses
system.cpu.icache.ReadReq_miss_rate::total     0.000013                       # miss rate for ReadReq accesses
system.cpu.icache.demand_miss_rate::cpu.inst     0.000013                       # miss rate for demand accesses
system.cpu.icache.demand_miss_rate::total     0.000013                       # miss rate for demand accesses
system.cpu.icache.overall_miss_rate::cpu.inst     0.000013                       # miss rate for overall accesses
system.cpu.icache.overall_miss_rate::total     0.000013                       # miss rate for overall accesses
system.cpu.icache.ReadReq_avg_miss_latency::cpu.inst 140947.019868                       # average ReadReq miss latency
system.cpu.icache.ReadReq_avg_miss_latency::total 140947.019868                       # average ReadReq miss latency
system.cpu.icache.demand_avg_miss_latency::cpu.inst 140947.019868                       # average overall miss latency
system.cpu.icache.demand_avg_miss_latency::total 140947.019868                       # average overall miss latency
system.cpu.icache.overall_avg_miss_latency::cpu.inst 140947.019868                       # average overall miss latency
system.cpu.icache.overall_avg_miss_latency::total 140947.019868                       # average overall miss latency
system.cpu.icache.blocked_cycles::no_mshrs            0                       # number of cycles access was blocked
system.cpu.icache.blocked_cycles::no_targets            0                       # number of cycles access was blocked
system.cpu.icache.blocked::no_mshrs                 0                       # number of cycles access was blocked
system.cpu.icache.blocked::no_targets               0                       # number of cycles access was blocked
system.cpu.icache.avg_blocked_cycles::no_mshrs          nan                       # average number of cycles each access was blocked
system.cpu.icache.avg_blocked_cycles::no_targets          nan                       # average number of cycles each access was blocked
system.cpu.icache.writebacks::writebacks          305                       # number of writebacks
system.cpu.icache.writebacks::total               305                       # number of writebacks
system.cpu.icache.ReadReq_mshr_misses::cpu.inst          755                       # number of ReadReq MSHR misses
system.cpu.icache.ReadReq_mshr_misses::total          755                       # number of ReadReq MSHR misses
system.cpu.icache.demand_mshr_misses::cpu.inst          755                       # number of demand (read+write) MSHR misses
system.cpu.icache.demand_mshr_misses::total          755                       # number of demand (read+write) MSHR misses
system.cpu.icache.overall_mshr_misses::cpu.inst          755                       # number of overall MSHR misses
system.cpu.icache.overall_mshr_misses::total          755                       # number of overall MSHR misses
system.cpu.icache.ReadReq_mshr_miss_latency::cpu.inst    105660000                       # number of ReadReq MSHR miss cycles
system.cpu.icache.ReadReq_mshr_miss_latency::total    105660000                       # number of ReadReq MSHR miss cycles
system.cpu.icache.demand_mshr_miss_latency::cpu.inst    105660000                       # number of demand (read+write) MSHR miss cycles
system.cpu.icache.demand_mshr_miss_latency::total    105660000                       # number of demand (read+write) MSHR miss cycles
system.cpu.icache.overall_mshr_miss_latency::cpu.inst    105660000                       # number of overall MSHR miss cycles
system.cpu.icache.overall_mshr_miss_latency::total    105660000                       # number of overall MSHR miss cycles
system.cpu.icache.ReadReq_mshr_miss_rate::cpu.inst     0.000013                       # mshr miss rate for ReadReq accesses
system.cpu.icache.ReadReq_mshr_miss_rate::total     0.000013                       # mshr miss rate for ReadReq accesses
system.cpu.icache.demand_mshr_miss_rate::cpu.inst     0.000013                       # mshr miss rate for demand accesses
system.cpu.icache.demand_mshr_miss_rate::total     0.000013                       # mshr miss rate for demand accesses
system.cpu.icache.overall_mshr_miss_rate::cpu.inst     0.000013                       # mshr miss rate for overall accesses
system.cpu.icache.overall_mshr_miss_rate::total     0.000013                       # mshr miss rate for overall accesses
system.cpu.icache.ReadReq_avg_mshr_miss_latency::cpu.inst 139947.019868                       # average ReadReq mshr miss latency
system.cpu.icache.ReadReq_avg_mshr_miss_latency::total 139947.019868                       # average ReadReq mshr miss latency
system.cpu.icache.demand_avg_mshr_miss_latency::cpu.inst 139947.019868                       # average overall mshr miss latency
system.cpu.icache.demand_avg_mshr_miss_latency::total 139947.019868                       # average overall mshr miss latency
system.cpu.icache.overall_avg_mshr_miss_latency::cpu.inst 139947.019868                       # average overall mshr miss latency
system.cpu.icache.overall_avg_mshr_miss_latency::total 139947.019868                       # average overall mshr miss latency
system.cpu.icache.replacements                    305                       # number of replacements
system.cpu.itb_walker_cache.tags.pwrStateResidencyTicks::UNDEFINED  87749903000                       # Cumulative time (in ticks) in various power states
system.cpu.itb_walker_cache.tags.tagsinuse            0                       # Cycle average of tags in use
system.cpu.itb_walker_cache.tags.total_refs            0                       # Total number of references to valid blocks.
system.cpu.itb_walker_cache.tags.sampled_refs            0                       # Sample count of references to valid blocks.
system.cpu.itb_walker_cache.tags.avg_refs          nan                       # Average number of references to valid blocks.
system.cpu.itb_walker_cache.tags.warmup_cycle            0                       # Cycle when the warmup percentage was hit.
system.cpu.itb_walker_cache.tags.tag_accesses            0                       # Number of tag accesses
system.cpu.itb_walker_cache.tags.data_accesses            0                       # Number of data accesses
system.cpu.itb_walker_cache.pwrStateResidencyTicks::UNDEFINED  87749903000                       # Cumulative time (in ticks) in various power states
system.cpu.itb_walker_cache.blocked_cycles::no_mshrs            0                       # number of cycles access was blocked
system.cpu.itb_walker_cache.blocked_cycles::no_targets            0                       # number of cycles access was blocked
system.cpu.itb_walker_cache.blocked::no_mshrs            0                       # number of cycles access was blocked
system.cpu.itb_walker_cache.blocked::no_targets            0                       # number of cycles access was blocked
system.cpu.itb_walker_cache.avg_blocked_cycles::no_mshrs          nan                       # average number of cycles each access was blocked
system.cpu.itb_walker_cache.avg_blocked_cycles::no_targets          nan                       # average number of cycles each access was blocked
system.cpu.itb_walker_cache.replacements            0                       # number of replacements
system.l2.tags.pwrStateResidencyTicks::UNDEFINED  87749903000                       # Cumulative time (in ticks) in various power states
system.l2.tags.tagsinuse                  2043.283336                       # Cycle average of tags in use
system.l2.tags.total_refs                       91860                       # Total number of references to valid blocks.
system.l2.tags.sampled_refs                     35646                       # Sample count of references to valid blocks.
system.l2.tags.avg_refs                      2.577007                       # Average number of references to valid blocks.
system.l2.tags.warmup_cycle                    428500                       # Cycle when the warmup percentage was hit.
system.l2.tags.occ_blocks::writebacks      468.304193                       # Average occupied blocks per requestor
system.l2.tags.occ_blocks::cpu.inst          8.775729                       # Average occupied blocks per requestor
system.l2.tags.occ_blocks::cpu.data       1566.203414                       # Average occupied blocks per requestor
system.l2.tags.occ_percent::writebacks       0.228664                       # Average percentage of cache occupancy
system.l2.tags.occ_percent::cpu.inst         0.004285                       # Average percentage of cache occupancy
system.l2.tags.occ_percent::cpu.data         0.764748                       # Average percentage of cache occupancy
system.l2.tags.occ_percent::total            0.997697                       # Average percentage of cache occupancy
system.l2.tags.occ_task_id_blocks::1024          2048                       # Occupied blocks per task id
system.l2.tags.age_task_id_blocks_1024::0          161                       # Occupied blocks per task id
system.l2.tags.age_task_id_blocks_1024::1           22                       # Occupied blocks per task id
system.l2.tags.age_task_id_blocks_1024::2           58                       # Occupied blocks per task id
system.l2.tags.age_task_id_blocks_1024::3           78                       # Occupied blocks per task id
system.l2.tags.age_task_id_blocks_1024::4         1729                       # Occupied blocks per task id
system.l2.tags.occ_task_id_percent::1024            1                       # Percentage of cache occupancy per task id
system.l2.tags.tag_accesses                    776158                       # Number of tag accesses
system.l2.tags.data_accesses                   776158                       # Number of data accesses
system.l2.pwrStateResidencyTicks::UNDEFINED  87749903000                       # Cumulative time (in ticks) in various power states
system.l2.WritebackDirty_hits::writebacks        35100                       # number of WritebackDirty hits
system.l2.WritebackDirty_hits::total            35100                       # number of WritebackDirty hits
system.l2.WritebackClean_hits::writebacks          305                       # number of WritebackClean hits
system.l2.WritebackClean_hits::total              305                       # number of WritebackClean hits
system.l2.UpgradeReq_hits::cpu.data             15810                       # number of UpgradeReq hits
system.l2.UpgradeReq_hits::total                15810                       # number of UpgradeReq hits
system.l2.ReadExReq_hits::cpu.data                162                       # number of ReadExReq hits
system.l2.ReadExReq_hits::total                   162                       # number of ReadExReq hits
system.l2.ReadCleanReq_hits::cpu.inst              17                       # number of ReadCleanReq hits
system.l2.ReadCleanReq_hits::total                 17                       # number of ReadCleanReq hits
system.l2.ReadSharedReq_hits::cpu.data          13295                       # number of ReadSharedReq hits
system.l2.ReadSharedReq_hits::total             13295                       # number of ReadSharedReq hits
system.l2.demand_hits::cpu.inst                    17                       # number of demand (read+write) hits
system.l2.demand_hits::cpu.data                 13457                       # number of demand (read+write) hits
system.l2.demand_hits::total                    13474                       # number of demand (read+write) hits
system.l2.overall_hits::cpu.inst                   17                       # number of overall hits
system.l2.overall_hits::cpu.data                13457                       # number of overall hits
system.l2.overall_hits::total                   13474                       # number of overall hits
system.l2.UpgradeReq_misses::cpu.data              13                       # number of UpgradeReq misses
system.l2.UpgradeReq_misses::total                 13                       # number of UpgradeReq misses
system.l2.ReadExReq_misses::cpu.data             6814                       # number of ReadExReq misses
system.l2.ReadExReq_misses::total                6814                       # number of ReadExReq misses
system.l2.ReadCleanReq_misses::cpu.inst           738                       # number of ReadCleanReq misses
system.l2.ReadCleanReq_misses::total              738                       # number of ReadCleanReq misses
system.l2.ReadSharedReq_misses::cpu.data        18082                       # number of ReadSharedReq misses
system.l2.ReadSharedReq_misses::total           18082                       # number of ReadSharedReq misses
system.l2.demand_misses::cpu.inst                 738                       # number of demand (read+write) misses
system.l2.demand_misses::cpu.data               24896                       # number of demand (read+write) misses
system.l2.demand_misses::total                  25634                       # number of demand (read+write) misses
system.l2.overall_misses::cpu.inst                738                       # number of overall misses
system.l2.overall_misses::cpu.data              24896                       # number of overall misses
system.l2.overall_misses::total                 25634                       # number of overall misses
system.l2.ReadExReq_miss_latency::cpu.data    334210000                       # number of ReadExReq miss cycles
system.l2.ReadExReq_miss_latency::total     334210000                       # number of ReadExReq miss cycles
system.l2.ReadCleanReq_miss_latency::cpu.inst    104345000                       # number of ReadCleanReq miss cycles
system.l2.ReadCleanReq_miss_latency::total    104345000                       # number of ReadCleanReq miss cycles
system.l2.ReadSharedReq_miss_latency::cpu.data    669651500                       # number of ReadSharedReq miss cycles
system.l2.ReadSharedReq_miss_latency::total    669651500                       # number of ReadSharedReq miss cycles
system.l2.demand_miss_latency::cpu.inst     104345000                       # number of demand (read+write) miss cycles
system.l2.demand_miss_latency::cpu.data    1003861500                       # number of demand (read+write) miss cycles
system.l2.demand_miss_latency::total       1108206500                       # number of demand (read+write) miss cycles
system.l2.overall_miss_latency::cpu.inst    104345000                       # number of overall miss cycles
system.l2.overall_miss_latency::cpu.data   1003861500                       # number of overall miss cycles
system.l2.overall_miss_latency::total      1108206500                       # number of overall miss cycles
system.l2.WritebackDirty_accesses::writebacks        35100                       # number of WritebackDirty accesses(hits+misses)
system.l2.WritebackDirty_accesses::total        35100                       # number of WritebackDirty accesses(hits+misses)
system.l2.WritebackClean_accesses::writebacks          305                       # number of WritebackClean accesses(hits+misses)
system.l2.WritebackClean_accesses::total          305                       # number of WritebackClean accesses(hits+misses)
system.l2.UpgradeReq_accesses::cpu.data         15823                       # number of UpgradeReq accesses(hits+misses)
system.l2.UpgradeReq_accesses::total            15823                       # number of UpgradeReq accesses(hits+misses)
system.l2.ReadExReq_accesses::cpu.data           6976                       # number of ReadExReq accesses(hits+misses)
system.l2.ReadExReq_accesses::total              6976                       # number of ReadExReq accesses(hits+misses)
system.l2.ReadCleanReq_accesses::cpu.inst          755                       # number of ReadCleanReq accesses(hits+misses)
system.l2.ReadCleanReq_accesses::total            755                       # number of ReadCleanReq accesses(hits+misses)
system.l2.ReadSharedReq_accesses::cpu.data        31377                       # number of ReadSharedReq accesses(hits+misses)
system.l2.ReadSharedReq_accesses::total         31377                       # number of ReadSharedReq accesses(hits+misses)
system.l2.demand_accesses::cpu.inst               755                       # number of demand (read+write) accesses
system.l2.demand_accesses::cpu.data             38353                       # number of demand (read+write) accesses
system.l2.demand_accesses::total                39108                       # number of demand (read+write) accesses
system.l2.overall_accesses::cpu.inst              755                       # number of overall (read+write) accesses
system.l2.overall_accesses::cpu.data            38353                       # number of overall (read+write) accesses
system.l2.overall_accesses::total               39108                       # number of overall (read+write) accesses
system.l2.UpgradeReq_miss_rate::cpu.data     0.000822                       # miss rate for UpgradeReq accesses
system.l2.UpgradeReq_miss_rate::total        0.000822                       # miss rate for UpgradeReq accesses
system.l2.ReadExReq_miss_rate::cpu.data      0.976778                       # miss rate for ReadExReq accesses
system.l2.ReadExReq_miss_rate::total         0.976778                       # miss rate for ReadExReq accesses
system.l2.ReadCleanReq_miss_rate::cpu.inst     0.977483                       # miss rate for ReadCleanReq accesses
system.l2.ReadCleanReq_miss_rate::total      0.977483                       # miss rate for ReadCleanReq accesses
system.l2.ReadSharedReq_miss_rate::cpu.data     0.576282                       # miss rate for ReadSharedReq accesses
system.l2.ReadSharedReq_miss_rate::total     0.576282                       # miss rate for ReadSharedReq accesses
system.l2.demand_miss_rate::cpu.inst         0.977483                       # miss rate for demand accesses
system.l2.demand_miss_rate::cpu.data         0.649128                       # miss rate for demand accesses
system.l2.demand_miss_rate::total            0.655467                       # miss rate for demand accesses
system.l2.overall_miss_rate::cpu.inst        0.977483                       # miss rate for overall accesses
system.l2.overall_miss_rate::cpu.data        0.649128                       # miss rate for overall accesses
system.l2.overall_miss_rate::total           0.655467                       # miss rate for overall accesses
system.l2.ReadExReq_avg_miss_latency::cpu.data 49047.549163                       # average ReadExReq miss latency
system.l2.ReadExReq_avg_miss_latency::total 49047.549163                       # average ReadExReq miss latency
system.l2.ReadCleanReq_avg_miss_latency::cpu.inst 141388.888889                       # average ReadCleanReq miss latency
system.l2.ReadCleanReq_avg_miss_latency::total 141388.888889                       # average ReadCleanReq miss latency
system.l2.ReadSharedReq_avg_miss_latency::cpu.data 37034.149983                       # average ReadSharedReq miss latency
system.l2.ReadSharedReq_avg_miss_latency::total 37034.149983                       # average ReadSharedReq miss latency
system.l2.demand_avg_miss_latency::cpu.inst 141388.888889                       # average overall miss latency
system.l2.demand_avg_miss_latency::cpu.data 40322.200353                       # average overall miss latency
system.l2.demand_avg_miss_latency::total 43231.899040                       # average overall miss latency
system.l2.overall_avg_miss_latency::cpu.inst 141388.888889                       # average overall miss latency
system.l2.overall_avg_miss_latency::cpu.data 40322.200353                       # average overall miss latency
system.l2.overall_avg_miss_latency::total 43231.899040                       # average overall miss latency
system.l2.blocked_cycles::no_mshrs                  0                       # number of cycles access was blocked
system.l2.blocked_cycles::no_targets                0                       # number of cycles access was blocked
system.l2.blocked::no_mshrs                         0                       # number of cycles access was blocked
system.l2.blocked::no_targets                       0                       # number of cycles access was blocked
system.l2.avg_blocked_cycles::no_mshrs            nan                       # average number of cycles each access was blocked
system.l2.avg_blocked_cycles::no_targets          nan                       # average number of cycles each access was blocked
system.l2.writebacks::writebacks                21815                       # number of writebacks
system.l2.writebacks::total                     21815                       # number of writebacks
system.l2.CleanEvict_mshr_misses::writebacks          691                       # number of CleanEvict MSHR misses
system.l2.CleanEvict_mshr_misses::total           691                       # number of CleanEvict MSHR misses
system.l2.UpgradeReq_mshr_misses::cpu.data           13                       # number of UpgradeReq MSHR misses
system.l2.UpgradeReq_mshr_misses::total            13                       # number of UpgradeReq MSHR misses
system.l2.ReadExReq_mshr_misses::cpu.data         6814                       # number of ReadExReq MSHR misses
system.l2.ReadExReq_mshr_misses::total           6814                       # number of ReadExReq MSHR misses
system.l2.ReadCleanReq_mshr_misses::cpu.inst          738                       # number of ReadCleanReq MSHR misses
system.l2.ReadCleanReq_mshr_misses::total          738                       # number of ReadCleanReq MSHR misses
system.l2.ReadSharedReq_mshr_misses::cpu.data        18082                       # number of ReadSharedReq MSHR misses
system.l2.ReadSharedReq_mshr_misses::total        18082                       # number of ReadSharedReq MSHR misses
system.l2.demand_mshr_misses::cpu.inst            738                       # number of demand (read+write) MSHR misses
system.l2.demand_mshr_misses::cpu.data          24896                       # number of demand (read+write) MSHR misses
system.l2.demand_mshr_misses::total             25634                       # number of demand (read+write) MSHR misses
system.l2.overall_mshr_misses::cpu.inst           738                       # number of overall MSHR misses
system.l2.overall_mshr_misses::cpu.data         24896                       # number of overall MSHR misses
system.l2.overall_mshr_misses::total            25634                       # number of overall MSHR misses
system.l2.UpgradeReq_mshr_miss_latency::cpu.data       279500                       # number of UpgradeReq MSHR miss cycles
system.l2.UpgradeReq_mshr_miss_latency::total       279500                       # number of UpgradeReq MSHR miss cycles
system.l2.ReadExReq_mshr_miss_latency::cpu.data    266070000                       # number of ReadExReq MSHR miss cycles
system.l2.ReadExReq_mshr_miss_latency::total    266070000                       # number of ReadExReq MSHR miss cycles
system.l2.ReadCleanReq_mshr_miss_latency::cpu.inst     96965000                       # number of ReadCleanReq MSHR miss cycles
system.l2.ReadCleanReq_mshr_miss_latency::total     96965000                       # number of ReadCleanReq MSHR miss cycles
system.l2.ReadSharedReq_mshr_miss_latency::cpu.data    488831500                       # number of ReadSharedReq MSHR miss cycles
system.l2.ReadSharedReq_mshr_miss_latency::total    488831500                       # number of ReadSharedReq MSHR miss cycles
system.l2.demand_mshr_miss_latency::cpu.inst     96965000                       # number of demand (read+write) MSHR miss cycles
system.l2.demand_mshr_miss_latency::cpu.data    754901500                       # number of demand (read+write) MSHR miss cycles
system.l2.demand_mshr_miss_latency::total    851866500                       # number of demand (read+write) MSHR miss cycles
system.l2.overall_mshr_miss_latency::cpu.inst     96965000                       # number of overall MSHR miss cycles
system.l2.overall_mshr_miss_latency::cpu.data    754901500                       # number of overall MSHR miss cycles
system.l2.overall_mshr_miss_latency::total    851866500                       # number of overall MSHR miss cycles
system.l2.CleanEvict_mshr_miss_rate::writebacks          inf                       # mshr miss rate for CleanEvict accesses
system.l2.CleanEvict_mshr_miss_rate::total          inf                       # mshr miss rate for CleanEvict accesses
system.l2.UpgradeReq_mshr_miss_rate::cpu.data     0.000822                       # mshr miss rate for UpgradeReq accesses
system.l2.UpgradeReq_mshr_miss_rate::total     0.000822                       # mshr miss rate for UpgradeReq accesses
system.l2.ReadExReq_mshr_miss_rate::cpu.data     0.976778                       # mshr miss rate for ReadExReq accesses
system.l2.ReadExReq_mshr_miss_rate::total     0.976778                       # mshr miss rate for ReadExReq accesses
system.l2.ReadCleanReq_mshr_miss_rate::cpu.inst     0.977483                       # mshr miss rate for ReadCleanReq accesses
system.l2.ReadCleanReq_mshr_miss_rate::total     0.977483                       # mshr miss rate for ReadCleanReq accesses
system.l2.ReadSharedReq_mshr_miss_rate::cpu.data     0.576282                       # mshr miss rate for ReadSharedReq accesses
system.l2.ReadSharedReq_mshr_miss_rate::total     0.576282                       # mshr miss rate for ReadSharedReq accesses
system.l2.demand_mshr_miss_rate::cpu.inst     0.977483                       # mshr miss rate for demand accesses
system.l2.demand_mshr_miss_rate::cpu.data     0.649128                       # mshr miss rate for demand accesses
system.l2.demand_mshr_miss_rate::total       0.655467                       # mshr miss rate for demand accesses
system.l2.overall_mshr_miss_rate::cpu.inst     0.977483                       # mshr miss rate for overall accesses
system.l2.overall_mshr_miss_rate::cpu.data     0.649128                       # mshr miss rate for overall accesses
system.l2.overall_mshr_miss_rate::total      0.655467                       # mshr miss rate for overall accesses
system.l2.UpgradeReq_avg_mshr_miss_latency::cpu.data        21500                       # average UpgradeReq mshr miss latency
system.l2.UpgradeReq_avg_mshr_miss_latency::total        21500                       # average UpgradeReq mshr miss latency
system.l2.ReadExReq_avg_mshr_miss_latency::cpu.data 39047.549163                       # average ReadExReq mshr miss latency
system.l2.ReadExReq_avg_mshr_miss_latency::total 39047.549163                       # average ReadExReq mshr miss latency
system.l2.ReadCleanReq_avg_mshr_miss_latency::cpu.inst 131388.888889                       # average ReadCleanReq mshr miss latency
system.l2.ReadCleanReq_avg_mshr_miss_latency::total 131388.888889                       # average ReadCleanReq mshr miss latency
system.l2.ReadSharedReq_avg_mshr_miss_latency::cpu.data 27034.149983                       # average ReadSharedReq mshr miss latency
system.l2.ReadSharedReq_avg_mshr_miss_latency::total 27034.149983                       # average ReadSharedReq mshr miss latency
system.l2.demand_avg_mshr_miss_latency::cpu.inst 131388.888889                       # average overall mshr miss latency
system.l2.demand_avg_mshr_miss_latency::cpu.data 30322.200353                       # average overall mshr miss latency
system.l2.demand_avg_mshr_miss_latency::total 33231.899040                       # average overall mshr miss latency
system.l2.overall_avg_mshr_miss_latency::cpu.inst 131388.888889                       # average overall mshr miss latency
system.l2.overall_avg_mshr_miss_latency::cpu.data 30322.200353                       # average overall mshr miss latency
system.l2.overall_avg_mshr_miss_latency::total 33231.899040                       # average overall mshr miss latency
system.l2.replacements                          33598                       # number of replacements
system.l3.tags.pwrStateResidencyTicks::UNDEFINED  87749903000                       # Cumulative time (in ticks) in various power states
system.l3.tags.tagsinuse                  7751.542381                       # Cycle average of tags in use
system.l3.tags.total_refs                       49139                       # Total number of references to valid blocks.
system.l3.tags.sampled_refs                      8514                       # Sample count of references to valid blocks.
system.l3.tags.avg_refs                      5.771553                       # Average number of references to valid blocks.
system.l3.tags.warmup_cycle                    418000                       # Cycle when the warmup percentage was hit.
system.l3.tags.occ_blocks::writebacks        0.840386                       # Average occupied blocks per requestor
system.l3.tags.occ_blocks::cpu.inst        460.853628                       # Average occupied blocks per requestor
system.l3.tags.occ_blocks::cpu.data       7289.848366                       # Average occupied blocks per requestor
system.l3.tags.occ_percent::writebacks       0.000103                       # Average percentage of cache occupancy
system.l3.tags.occ_percent::cpu.inst         0.056257                       # Average percentage of cache occupancy
system.l3.tags.occ_percent::cpu.data         0.889874                       # Average percentage of cache occupancy
system.l3.tags.occ_percent::total            0.946233                       # Average percentage of cache occupancy
system.l3.tags.occ_task_id_blocks::1024          8192                       # Occupied blocks per task id
system.l3.tags.age_task_id_blocks_1024::0           57                       # Occupied blocks per task id
system.l3.tags.age_task_id_blocks_1024::1            7                       # Occupied blocks per task id
system.l3.tags.age_task_id_blocks_1024::3            2                       # Occupied blocks per task id
system.l3.tags.age_task_id_blocks_1024::4         8126                       # Occupied blocks per task id
system.l3.tags.occ_task_id_percent::1024            1                       # Percentage of cache occupancy per task id
system.l3.tags.tag_accesses                 402571586                       # Number of tag accesses
system.l3.tags.data_accesses                402571586                       # Number of data accesses
system.l3.pwrStateResidencyTicks::UNDEFINED  87749903000                       # Cumulative time (in ticks) in various power states
system.l3.WritebackDirty_hits::writebacks        21815                       # number of WritebackDirty hits
system.l3.WritebackDirty_hits::total            21815                       # number of WritebackDirty hits
system.l3.UpgradeReq_hits::cpu.data                13                       # number of UpgradeReq hits
system.l3.UpgradeReq_hits::total                   13                       # number of UpgradeReq hits
system.l3.ReadExReq_hits::cpu.data                106                       # number of ReadExReq hits
system.l3.ReadExReq_hits::total                   106                       # number of ReadExReq hits
system.l3.ReadSharedReq_hits::cpu.inst              4                       # number of ReadSharedReq hits
system.l3.ReadSharedReq_hits::cpu.data          17011                       # number of ReadSharedReq hits
system.l3.ReadSharedReq_hits::total             17015                       # number of ReadSharedReq hits
system.l3.demand_hits::cpu.inst                     4                       # number of demand (read+write) hits
system.l3.demand_hits::cpu.data                 17117                       # number of demand (read+write) hits
system.l3.demand_hits::total                    17121                       # number of demand (read+write) hits
system.l3.overall_hits::cpu.inst                    4                       # number of overall hits
system.l3.overall_hits::cpu.data                17117                       # number of overall hits
system.l3.overall_hits::total                   17121                       # number of overall hits
system.l3.ReadExReq_misses::cpu.data             6708                       # number of ReadExReq misses
system.l3.ReadExReq_misses::total                6708                       # number of ReadExReq misses
system.l3.ReadSharedReq_misses::cpu.inst          734                       # number of ReadSharedReq misses
system.l3.ReadSharedReq_misses::cpu.data         1071                       # number of ReadSharedReq misses
system.l3.ReadSharedReq_misses::total            1805                       # number of ReadSharedReq misses
system.l3.demand_misses::cpu.inst                 734                       # number of demand (read+write) misses
system.l3.demand_misses::cpu.data                7779                       # number of demand (read+write) misses
system.l3.demand_misses::total                   8513                       # number of demand (read+write) misses
system.l3.overall_misses::cpu.inst                734                       # number of overall misses
system.l3.overall_misses::cpu.data               7779                       # number of overall misses
system.l3.overall_misses::total                  8513                       # number of overall misses
system.l3.ReadExReq_miss_latency::cpu.data    190003000                       # number of ReadExReq miss cycles
system.l3.ReadExReq_miss_latency::total     190003000                       # number of ReadExReq miss cycles
system.l3.ReadSharedReq_miss_latency::cpu.inst     88805000                       # number of ReadSharedReq miss cycles
system.l3.ReadSharedReq_miss_latency::cpu.data    111314000                       # number of ReadSharedReq miss cycles
system.l3.ReadSharedReq_miss_latency::total    200119000                       # number of ReadSharedReq miss cycles
system.l3.demand_miss_latency::cpu.inst      88805000                       # number of demand (read+write) miss cycles
system.l3.demand_miss_latency::cpu.data     301317000                       # number of demand (read+write) miss cycles
system.l3.demand_miss_latency::total        390122000                       # number of demand (read+write) miss cycles
system.l3.overall_miss_latency::cpu.inst     88805000                       # number of overall miss cycles
system.l3.overall_miss_latency::cpu.data    301317000                       # number of overall miss cycles
system.l3.overall_miss_latency::total       390122000                       # number of overall miss cycles
system.l3.WritebackDirty_accesses::writebacks        21815                       # number of WritebackDirty accesses(hits+misses)
system.l3.WritebackDirty_accesses::total        21815                       # number of WritebackDirty accesses(hits+misses)
system.l3.UpgradeReq_accesses::cpu.data            13                       # number of UpgradeReq accesses(hits+misses)
system.l3.UpgradeReq_accesses::total               13                       # number of UpgradeReq accesses(hits+misses)
system.l3.ReadExReq_accesses::cpu.data           6814                       # number of ReadExReq accesses(hits+misses)
system.l3.ReadExReq_accesses::total              6814                       # number of ReadExReq accesses(hits+misses)
system.l3.ReadSharedReq_accesses::cpu.inst          738                       # number of ReadSharedReq accesses(hits+misses)
system.l3.ReadSharedReq_accesses::cpu.data        18082                       # number of ReadSharedReq accesses(hits+misses)
system.l3.ReadSharedReq_accesses::total         18820                       # number of ReadSharedReq accesses(hits+misses)
system.l3.demand_accesses::cpu.inst               738                       # number of demand (read+write) accesses
system.l3.demand_accesses::cpu.data             24896                       # number of demand (read+write) accesses
system.l3.demand_accesses::total                25634                       # number of demand (read+write) accesses
system.l3.overall_accesses::cpu.inst              738                       # number of overall (read+write) accesses
system.l3.overall_accesses::cpu.data            24896                       # number of overall (read+write) accesses
system.l3.overall_accesses::total               25634                       # number of overall (read+write) accesses
system.l3.ReadExReq_miss_rate::cpu.data      0.984444                       # miss rate for ReadExReq accesses
system.l3.ReadExReq_miss_rate::total         0.984444                       # miss rate for ReadExReq accesses
system.l3.ReadSharedReq_miss_rate::cpu.inst     0.994580                       # miss rate for ReadSharedReq accesses
system.l3.ReadSharedReq_miss_rate::cpu.data     0.059230                       # miss rate for ReadSharedReq accesses
system.l3.ReadSharedReq_miss_rate::total     0.095909                       # miss rate for ReadSharedReq accesses
system.l3.demand_miss_rate::cpu.inst         0.994580                       # miss rate for demand accesses
system.l3.demand_miss_rate::cpu.data         0.312460                       # miss rate for demand accesses
system.l3.demand_miss_rate::total            0.332098                       # miss rate for demand accesses
system.l3.overall_miss_rate::cpu.inst        0.994580                       # miss rate for overall accesses
system.l3.overall_miss_rate::cpu.data        0.312460                       # miss rate for overall accesses
system.l3.overall_miss_rate::total           0.332098                       # miss rate for overall accesses
system.l3.ReadExReq_avg_miss_latency::cpu.data 28324.836017                       # average ReadExReq miss latency
system.l3.ReadExReq_avg_miss_latency::total 28324.836017                       # average ReadExReq miss latency
system.l3.ReadSharedReq_avg_miss_latency::cpu.inst 120987.738420                       # average ReadSharedReq miss latency
system.l3.ReadSharedReq_avg_miss_latency::cpu.data 103934.640523                       # average ReadSharedReq miss latency
system.l3.ReadSharedReq_avg_miss_latency::total 110869.252078                       # average ReadSharedReq miss latency
system.l3.demand_avg_miss_latency::cpu.inst 120987.738420                       # average overall miss latency
system.l3.demand_avg_miss_latency::cpu.data 38734.670266                       # average overall miss latency
system.l3.demand_avg_miss_latency::total 45826.618113                       # average overall miss latency
system.l3.overall_avg_miss_latency::cpu.inst 120987.738420                       # average overall miss latency
system.l3.overall_avg_miss_latency::cpu.data 38734.670266                       # average overall miss latency
system.l3.overall_avg_miss_latency::total 45826.618113                       # average overall miss latency
system.l3.blocked_cycles::no_mshrs                  0                       # number of cycles access was blocked
system.l3.blocked_cycles::no_targets                0                       # number of cycles access was blocked
system.l3.blocked::no_mshrs                         0                       # number of cycles access was blocked
system.l3.blocked::no_targets                       0                       # number of cycles access was blocked
system.l3.avg_blocked_cycles::no_mshrs            nan                       # average number of cycles each access was blocked
system.l3.avg_blocked_cycles::no_targets          nan                       # average number of cycles each access was blocked
system.l3.writebacks::writebacks                    1                       # number of writebacks
system.l3.writebacks::total                         1                       # number of writebacks
system.l3.CleanEvict_mshr_misses::writebacks            2                       # number of CleanEvict MSHR misses
system.l3.CleanEvict_mshr_misses::total             2                       # number of CleanEvict MSHR misses
system.l3.ReadExReq_mshr_misses::cpu.data         6708                       # number of ReadExReq MSHR misses
system.l3.ReadExReq_mshr_misses::total           6708                       # number of ReadExReq MSHR misses
system.l3.ReadSharedReq_mshr_misses::cpu.inst          734                       # number of ReadSharedReq MSHR misses
system.l3.ReadSharedReq_mshr_misses::cpu.data         1071                       # number of ReadSharedReq MSHR misses
system.l3.ReadSharedReq_mshr_misses::total         1805                       # number of ReadSharedReq MSHR misses
system.l3.demand_mshr_misses::cpu.inst            734                       # number of demand (read+write) MSHR misses
system.l3.demand_mshr_misses::cpu.data           7779                       # number of demand (read+write) MSHR misses
system.l3.demand_mshr_misses::total              8513                       # number of demand (read+write) MSHR misses
system.l3.overall_mshr_misses::cpu.inst           734                       # number of overall MSHR misses
system.l3.overall_mshr_misses::cpu.data          7779                       # number of overall MSHR misses
system.l3.overall_mshr_misses::total             8513                       # number of overall MSHR misses
system.l3.ReadExReq_mshr_miss_latency::cpu.data    122923000                       # number of ReadExReq MSHR miss cycles
system.l3.ReadExReq_mshr_miss_latency::total    122923000                       # number of ReadExReq MSHR miss cycles
system.l3.ReadSharedReq_mshr_miss_latency::cpu.inst     81465000                       # number of ReadSharedReq MSHR miss cycles
system.l3.ReadSharedReq_mshr_miss_latency::cpu.data    100604000                       # number of ReadSharedReq MSHR miss cycles
system.l3.ReadSharedReq_mshr_miss_latency::total    182069000                       # number of ReadSharedReq MSHR miss cycles
system.l3.demand_mshr_miss_latency::cpu.inst     81465000                       # number of demand (read+write) MSHR miss cycles
system.l3.demand_mshr_miss_latency::cpu.data    223527000                       # number of demand (read+write) MSHR miss cycles
system.l3.demand_mshr_miss_latency::total    304992000                       # number of demand (read+write) MSHR miss cycles
system.l3.overall_mshr_miss_latency::cpu.inst     81465000                       # number of overall MSHR miss cycles
system.l3.overall_mshr_miss_latency::cpu.data    223527000                       # number of overall MSHR miss cycles
system.l3.overall_mshr_miss_latency::total    304992000                       # number of overall MSHR miss cycles
system.l3.CleanEvict_mshr_miss_rate::writebacks          inf                       # mshr miss rate for CleanEvict accesses
system.l3.CleanEvict_mshr_miss_rate::total          inf                       # mshr miss rate for CleanEvict accesses
system.l3.ReadExReq_mshr_miss_rate::cpu.data     0.984444                       # mshr miss rate for ReadExReq accesses
system.l3.ReadExReq_mshr_miss_rate::total     0.984444                       # mshr miss rate for ReadExReq accesses
system.l3.ReadSharedReq_mshr_miss_rate::cpu.inst     0.994580                       # mshr miss rate for ReadSharedReq accesses
system.l3.ReadSharedReq_mshr_miss_rate::cpu.data     0.059230                       # mshr miss rate for ReadSharedReq accesses
system.l3.ReadSharedReq_mshr_miss_rate::total     0.095909                       # mshr miss rate for ReadSharedReq accesses
system.l3.demand_mshr_miss_rate::cpu.inst     0.994580                       # mshr miss rate for demand accesses
system.l3.demand_mshr_miss_rate::cpu.data     0.312460                       # mshr miss rate for demand accesses
system.l3.demand_mshr_miss_rate::total       0.332098                       # mshr miss rate for demand accesses
system.l3.overall_mshr_miss_rate::cpu.inst     0.994580                       # mshr miss rate for overall accesses
system.l3.overall_mshr_miss_rate::cpu.data     0.312460                       # mshr miss rate for overall accesses
system.l3.overall_mshr_miss_rate::total      0.332098                       # mshr miss rate for overall accesses
system.l3.ReadExReq_avg_mshr_miss_latency::cpu.data 18324.836017                       # average ReadExReq mshr miss latency
system.l3.ReadExReq_avg_mshr_miss_latency::total 18324.836017                       # average ReadExReq mshr miss latency
system.l3.ReadSharedReq_avg_mshr_miss_latency::cpu.inst 110987.738420                       # average ReadSharedReq mshr miss latency
system.l3.ReadSharedReq_avg_mshr_miss_latency::cpu.data 93934.640523                       # average ReadSharedReq mshr miss latency
system.l3.ReadSharedReq_avg_mshr_miss_latency::total 100869.252078                       # average ReadSharedReq mshr miss latency
system.l3.demand_avg_mshr_miss_latency::cpu.inst 110987.738420                       # average overall mshr miss latency
system.l3.demand_avg_mshr_miss_latency::cpu.data 28734.670266                       # average overall mshr miss latency
system.l3.demand_avg_mshr_miss_latency::total 35826.618113                       # average overall mshr miss latency
system.l3.overall_avg_mshr_miss_latency::cpu.inst 110987.738420                       # average overall mshr miss latency
system.l3.overall_avg_mshr_miss_latency::cpu.data 28734.670266                       # average overall mshr miss latency
system.l3.overall_avg_mshr_miss_latency::total 35826.618113                       # average overall mshr miss latency
system.l3.replacements                            322                       # number of replacements
system.membus.snoop_filter.tot_requests          8541                       # Total number of requests made to the snoop filter.
system.membus.snoop_filter.hit_single_requests           28                       # Number of requests hitting in the snoop filter with a single holder of the requested data.
system.membus.snoop_filter.hit_multi_requests            0                       # Number of requests hitting in the snoop filter with multiple (>1) holders of the requested data.
system.membus.snoop_filter.tot_snoops               0                       # Total number of snoops made to the snoop filter.
system.membus.snoop_filter.hit_single_snoops            0                       # Number of snoops hitting in the snoop filter with a single holder of the requested data.
system.membus.snoop_filter.hit_multi_snoops            0                       # Number of snoops hitting in the snoop filter with multiple (>1) holders of the requested data.
system.membus.pwrStateResidencyTicks::UNDEFINED  87749903000                       # Cumulative time (in ticks) in various power states
system.membus.trans_dist::ReadResp               1805                       # Transaction distribution
system.membus.trans_dist::WritebackDirty            1                       # Transaction distribution
system.membus.trans_dist::CleanEvict               27                       # Transaction distribution
system.membus.trans_dist::ReadExReq              6708                       # Transaction distribution
system.membus.trans_dist::ReadExResp             6708                       # Transaction distribution
system.membus.trans_dist::ReadSharedReq          1805                       # Transaction distribution
system.membus.pkt_count_system.l3.mem_side::system.mem_ctrls.port        17054                       # Packet count per connected master and slave (bytes)
system.membus.pkt_count_system.l3.mem_side::total        17054                       # Packet count per connected master and slave (bytes)
system.membus.pkt_count::total                  17054                       # Packet count per connected master and slave (bytes)
system.membus.pkt_size_system.l3.mem_side::system.mem_ctrls.port       544896                       # Cumulative packet size per connected master and slave (bytes)
system.membus.pkt_size_system.l3.mem_side::total       544896                       # Cumulative packet size per connected master and slave (bytes)
system.membus.pkt_size::total                  544896                       # Cumulative packet size per connected master and slave (bytes)
system.membus.snoops                                0                       # Total snoops (count)
system.membus.snoopTraffic                          0                       # Total snoop traffic (bytes)
system.membus.snoop_fanout::samples              8513                       # Request fanout histogram
system.membus.snoop_fanout::mean                    0                       # Request fanout histogram
system.membus.snoop_fanout::stdev                   0                       # Request fanout histogram
system.membus.snoop_fanout::underflows              0      0.00%      0.00% # Request fanout histogram
system.membus.snoop_fanout::0                    8513    100.00%    100.00% # Request fanout histogram
system.membus.snoop_fanout::1                       0      0.00%    100.00% # Request fanout histogram
system.membus.snoop_fanout::overflows               0      0.00%    100.00% # Request fanout histogram
system.membus.snoop_fanout::min_value               0                       # Request fanout histogram
system.membus.snoop_fanout::max_value               0                       # Request fanout histogram
system.membus.snoop_fanout::total                8513                       # Request fanout histogram
system.membus.reqLayer2.occupancy             8558000                       # Layer occupancy (ticks)
system.membus.reqLayer2.utilization               0.0                       # Layer utilization (%)
system.membus.respLayer1.occupancy           42578000                       # Layer occupancy (ticks)
system.membus.respLayer1.utilization              0.0                       # Layer utilization (%)
system.tol2bus.snoop_filter.tot_requests        92565                       # Total number of requests made to the snoop filter.
system.tol2bus.snoop_filter.hit_single_requests        53457                       # Number of requests hitting in the snoop filter with a single holder of the requested data.
system.tol2bus.snoop_filter.hit_multi_requests            1                       # Number of requests hitting in the snoop filter with multiple (>1) holders of the requested data.
system.tol2bus.snoop_filter.tot_snoops          11515                       # Total number of snoops made to the snoop filter.
system.tol2bus.snoop_filter.hit_single_snoops        11515                       # Number of snoops hitting in the snoop filter with a single holder of the requested data.
system.tol2bus.snoop_filter.hit_multi_snoops            0                       # Number of snoops hitting in the snoop filter with multiple (>1) holders of the requested data.
system.tol2bus.pwrStateResidencyTicks::UNDEFINED  87749903000                       # Cumulative time (in ticks) in various power states
system.tol2bus.trans_dist::ReadResp             32132                       # Transaction distribution
system.tol2bus.trans_dist::WritebackDirty        56915                       # Transaction distribution
system.tol2bus.trans_dist::WritebackClean          305                       # Transaction distribution
system.tol2bus.trans_dist::CleanEvict           14308                       # Transaction distribution
system.tol2bus.trans_dist::UpgradeReq           15823                       # Transaction distribution
system.tol2bus.trans_dist::UpgradeResp          15823                       # Transaction distribution
system.tol2bus.trans_dist::ReadExReq             6976                       # Transaction distribution
system.tol2bus.trans_dist::ReadExResp            6976                       # Transaction distribution
system.tol2bus.trans_dist::ReadCleanReq           755                       # Transaction distribution
system.tol2bus.trans_dist::ReadSharedReq        31377                       # Transaction distribution
system.tol2bus.pkt_count_system.cpu.icache.mem_side::system.l2.cpu_side         1815                       # Packet count per connected master and slave (bytes)
system.tol2bus.pkt_count_system.cpu.dcache.mem_side::system.l2.cpu_side       145681                       # Packet count per connected master and slave (bytes)
system.tol2bus.pkt_count::total                147496                       # Packet count per connected master and slave (bytes)
system.tol2bus.pkt_size_system.cpu.icache.mem_side::system.l2.cpu_side        67840                       # Cumulative packet size per connected master and slave (bytes)
system.tol2bus.pkt_size_system.cpu.dcache.mem_side::system.l2.cpu_side      4700992                       # Cumulative packet size per connected master and slave (bytes)
system.tol2bus.pkt_size::total                4768832                       # Cumulative packet size per connected master and slave (bytes)
system.tol2bus.snoops                           33894                       # Total snoops (count)
system.tol2bus.snoopTraffic                   1396160                       # Total snoop traffic (bytes)
system.tol2bus.snoop_fanout::samples            88825                       # Request fanout histogram
system.tol2bus.snoop_fanout::mean            0.129648                       # Request fanout histogram
system.tol2bus.snoop_fanout::stdev           0.335918                       # Request fanout histogram
system.tol2bus.snoop_fanout::underflows             0      0.00%      0.00% # Request fanout histogram
system.tol2bus.snoop_fanout::0                  77309     87.04%     87.04% # Request fanout histogram
system.tol2bus.snoop_fanout::1                  11516     12.96%    100.00% # Request fanout histogram
system.tol2bus.snoop_fanout::2                      0      0.00%    100.00% # Request fanout histogram
system.tol2bus.snoop_fanout::3                      0      0.00%    100.00% # Request fanout histogram
system.tol2bus.snoop_fanout::4                      0      0.00%    100.00% # Request fanout histogram
system.tol2bus.snoop_fanout::overflows              0      0.00%    100.00% # Request fanout histogram
system.tol2bus.snoop_fanout::min_value              0                       # Request fanout histogram
system.tol2bus.snoop_fanout::max_value              1                       # Request fanout histogram
system.tol2bus.snoop_fanout::total              88825                       # Request fanout histogram
system.tol2bus.reqLayer0.occupancy           81687500                       # Layer occupancy (ticks)
system.tol2bus.reqLayer0.utilization              0.1                       # Layer utilization (%)
system.tol2bus.respLayer0.occupancy           1132500                       # Layer occupancy (ticks)
system.tol2bus.respLayer0.utilization             0.0                       # Layer utilization (%)
system.tol2bus.respLayer1.occupancy          65441000                       # Layer occupancy (ticks)
system.tol2bus.respLayer1.utilization             0.1                       # Layer utilization (%)
system.tol3bus.snoop_filter.tot_requests        49141                       # Total number of requests made to the snoop filter.
system.tol3bus.snoop_filter.hit_single_requests        23507                       # Number of requests hitting in the snoop filter with a single holder of the requested data.
system.tol3bus.snoop_filter.hit_multi_requests            0                       # Number of requests hitting in the snoop filter with multiple (>1) holders of the requested data.
system.tol3bus.snoop_filter.tot_snoops            296                       # Total number of snoops made to the snoop filter.
system.tol3bus.snoop_filter.hit_single_snoops          296                       # Number of snoops hitting in the snoop filter with a single holder of the requested data.
system.tol3bus.snoop_filter.hit_multi_snoops            0                       # Number of snoops hitting in the snoop filter with multiple (>1) holders of the requested data.
system.tol3bus.pwrStateResidencyTicks::UNDEFINED  87749903000                       # Cumulative time (in ticks) in various power states
system.tol3bus.trans_dist::ReadResp             18820                       # Transaction distribution
system.tol3bus.trans_dist::WritebackDirty        21816                       # Transaction distribution
system.tol3bus.trans_dist::CleanEvict            2000                       # Transaction distribution
system.tol3bus.trans_dist::UpgradeReq              13                       # Transaction distribution
system.tol3bus.trans_dist::UpgradeResp             13                       # Transaction distribution
system.tol3bus.trans_dist::ReadExReq             6814                       # Transaction distribution
system.tol3bus.trans_dist::ReadExResp            6814                       # Transaction distribution
system.tol3bus.trans_dist::ReadSharedReq        18820                       # Transaction distribution
system.tol3bus.pkt_count_system.l2.mem_side::system.l3.cpu_side        74788                       # Packet count per connected master and slave (bytes)
system.tol3bus.pkt_size_system.l2.mem_side::system.l3.cpu_side      3036736                       # Cumulative packet size per connected master and slave (bytes)
system.tol3bus.snoops                             322                       # Total snoops (count)
system.tol3bus.snoopTraffic                        64                       # Total snoop traffic (bytes)
system.tol3bus.snoop_fanout::samples            25969                       # Request fanout histogram
system.tol3bus.snoop_fanout::mean            0.011398                       # Request fanout histogram
system.tol3bus.snoop_fanout::stdev           0.106154                       # Request fanout histogram
system.tol3bus.snoop_fanout::underflows             0      0.00%      0.00% # Request fanout histogram
system.tol3bus.snoop_fanout::0                  25673     98.86%     98.86% # Request fanout histogram
system.tol3bus.snoop_fanout::1                    296      1.14%    100.00% # Request fanout histogram
system.tol3bus.snoop_fanout::overflows              0      0.00%    100.00% # Request fanout histogram
system.tol3bus.snoop_fanout::min_value              0                       # Request fanout histogram
system.tol3bus.snoop_fanout::max_value              1                       # Request fanout histogram
system.tol3bus.snoop_fanout::total              25969                       # Request fanout histogram
system.tol3bus.reqLayer0.occupancy           46385500                       # Layer occupancy (ticks)
system.tol3bus.reqLayer0.utilization              0.1                       # Layer utilization (%)
system.tol3bus.respLayer0.occupancy          38457500                       # Layer occupancy (ticks)
system.tol3bus.respLayer0.utilization             0.0                       # Layer utilization (%)

---------- End Simulation Statistics   ----------
